Abu
     RDKit          3D

 15 14  0  0  0  0  0  0  0  0999 V2000
   -0.7360   -1.4367    0.0245 N   0  0  0  0  0  0  0  0  0  0  0  0
   -0.6423    0.0086    0.2479 C   0  0  1  0  0  0  0  0  0  0  0  0
    0.7041    0.5443   -0.2727 C   0  0  0  0  0  0  0  0  0  0  0  0
    1.8899   -0.0668    0.4729 C   0  0  0  0  0  0  0  0  0  0  0  0
   -1.7885    0.7256   -0.4219 C   0  0  0  0  0  0  0  0  0  0  0  0
   -1.9613    1.9199   -0.2362 O   0  0  0  0  0  0  0  0  0  0  0  0
   -1.6315   -1.7835    0.4400 H   0  0  0  0  0  0  0  0  0  0  0  0
   -0.7706   -1.6292   -1.0038 H   0  0  0  0  0  0  0  0  0  0  0  0
   -0.7076    0.2032    1.3419 H   0  0  0  0  0  0  0  0  0  0  0  0
    0.7430    1.6477   -0.1386 H   0  0  0  0  0  0  0  0  0  0  0  0
    0.8051    0.3272   -1.3589 H   0  0  0  0  0  0  0  0  0  0  0  0
    1.9286   -1.1649    0.3119 H   0  0  0  0  0  0  0  0  0  0  0  0
    1.8116    0.1428    1.5609 H   0  0  0  0  0  0  0  0  0  0  0  0
    2.8345    0.3770    0.0939 H   0  0  0  0  0  0  0  0  0  0  0  0
   -2.4791    0.1848   -1.0618 H   0  0  0  0  0  0  0  0  0  0  0  0
  1  2  1  0
  2  3  1  0
  3  4  1  0
  2  5  1  0
  5  6  2  0
  1  7  1  0
  1  8  1  0
  2  9  1  1
  3 10  1  0
  3 11  1  0
  4 12  1  0
  4 13  1  0
  4 14  1  0
  5 15  1  0
M  END
>  <Pepforge_TemplateRole>  (1) 
explicit_attachment_fragment

>  <Pepforge_CurationStatus>  (1) 
explicit_residue_graph

>  <Pepforge_Source>  (1) 
explicit_residue_fragment

>  <Pepforge_Notice>  (1) 
Attachment fragment for connected peptide construction; not a free-reagent or experimental-structure claim.

$$$$
