AEEA
     RDKit          3D

 23 22  0  0  0  0  0  0  0  0999 V2000
   -3.9956    0.7446   -0.2214 N   0  0  0  0  0  0  0  0  0  0  0  0
   -3.4963   -0.6031    0.0755 C   0  0  0  0  0  0  0  0  0  0  0  0
   -2.0976   -0.8424   -0.5075 C   0  0  0  0  0  0  0  0  0  0  0  0
   -1.1944    0.1365    0.0187 O   0  0  0  0  0  0  0  0  0  0  0  0
    0.1303   -0.0526   -0.4765 C   0  0  0  0  0  0  0  0  0  0  0  0
    1.0380    1.0380    0.0907 C   0  0  0  0  0  0  0  0  0  0  0  0
    2.3784    0.9180   -0.3868 O   0  0  0  0  0  0  0  0  0  0  0  0
    3.1578    0.0142    0.3881 C   0  0  0  0  0  0  0  0  0  0  0  0
    4.5204   -0.1024   -0.2509 C   0  0  0  0  0  0  0  0  0  0  0  0
    5.1121   -1.1692   -0.3964 O   0  0  0  0  0  0  0  0  0  0  0  0
   -3.2893    1.4034    0.1185 H   0  0  0  0  0  0  0  0  0  0  0  0
   -4.0094    0.8819   -1.2312 H   0  0  0  0  0  0  0  0  0  0  0  0
   -4.1979   -1.3451   -0.3183 H   0  0  0  0  0  0  0  0  0  0  0  0
   -3.4627   -0.7150    1.1646 H   0  0  0  0  0  0  0  0  0  0  0  0
   -2.1245   -0.7648   -1.6008 H   0  0  0  0  0  0  0  0  0  0  0  0
   -1.7534   -1.8449   -0.2294 H   0  0  0  0  0  0  0  0  0  0  0  0
    0.1354   -0.0034   -1.5719 H   0  0  0  0  0  0  0  0  0  0  0  0
    0.4929   -1.0442   -0.1851 H   0  0  0  0  0  0  0  0  0  0  0  0
    0.6614    2.0147   -0.2345 H   0  0  0  0  0  0  0  0  0  0  0  0
    1.0086    1.0516    1.1873 H   0  0  0  0  0  0  0  0  0  0  0  0
    2.6964   -0.9769    0.4213 H   0  0  0  0  0  0  0  0  0  0  0  0
    3.2882    0.4085    1.4006 H   0  0  0  0  0  0  0  0  0  0  0  0
    5.0010    0.8525   -0.5236 H   0  0  0  0  0  0  0  0  0  0  0  0
  1  2  1  0
  2  3  1  0
  3  4  1  0
  4  5  1  0
  5  6  1  0
  6  7  1  0
  7  8  1  0
  8  9  1  0
  9 10  2  0
  1 11  1  0
  1 12  1  0
  2 13  1  0
  2 14  1  0
  3 15  1  0
  3 16  1  0
  5 17  1  0
  5 18  1  0
  6 19  1  0
  6 20  1  0
  8 21  1  0
  8 22  1  0
  9 23  1  0
M  END
>  <Pepforge_TemplateRole>  (1) 
explicit_attachment_fragment

>  <Pepforge_CurationStatus>  (1) 
explicit_linear_linker_graph

>  <Pepforge_Source>  (1) 
database_or_explicit_linker_convention

>  <Pepforge_Notice>  (1) 
Attachment fragment for connected peptide construction; not a claim that this SDF is the free labeling reagent.

$$$$
