AEEA
     RDKit          3D

 21 20  0  0  0  0  0  0  0  0999 V2000
   -3.6500    0.4982    0.9281 N   0  0  0  0  0  0  0  0  0  0  0  0
   -2.2011    0.3345    0.8255 C   0  0  0  0  0  0  0  0  0  0  0  0
   -1.7367   -0.0507   -0.5868 C   0  0  0  0  0  0  0  0  0  0  0  0
   -0.3429   -0.3626   -0.6293 O   0  0  0  0  0  0  0  0  0  0  0  0
    0.4947    0.8004   -0.6382 C   0  0  0  0  0  0  0  0  0  0  0  0
    1.9499    0.3585   -0.7840 C   0  0  0  0  0  0  0  0  0  0  0  0
    2.3537   -0.4981    0.3160 N   0  0  0  0  0  0  0  0  0  0  0  0
    3.6695   -0.6549    0.6588 C   0  0  0  0  0  0  0  0  0  0  0  0
    4.6085   -0.0279    0.1914 O   0  0  0  0  0  0  0  0  0  0  0  0
   -4.1130   -0.3759    0.6796 H   0  0  0  0  0  0  0  0  0  0  0  0
   -3.9716    1.1919    0.2541 H   0  0  0  0  0  0  0  0  0  0  0  0
   -1.7223    1.2678    1.1386 H   0  0  0  0  0  0  0  0  0  0  0  0
   -1.8714   -0.4279    1.5404 H   0  0  0  0  0  0  0  0  0  0  0  0
   -1.9750    0.7333   -1.3156 H   0  0  0  0  0  0  0  0  0  0  0  0
   -2.2652   -0.9569   -0.9039 H   0  0  0  0  0  0  0  0  0  0  0  0
    0.3675    1.3551    0.2969 H   0  0  0  0  0  0  0  0  0  0  0  0
    0.2219    1.4438   -1.4817 H   0  0  0  0  0  0  0  0  0  0  0  0
    2.6122    1.2290   -0.8338 H   0  0  0  0  0  0  0  0  0  0  0  0
    2.0796   -0.2295   -1.6993 H   0  0  0  0  0  0  0  0  0  0  0  0
    1.6898   -1.2051    0.6107 H   0  0  0  0  0  0  0  0  0  0  0  0
    3.8020   -1.4295    1.4325 H   0  0  0  0  0  0  0  0  0  0  0  0
  1  2  1  0
  2  3  1  0
  3  4  1  0
  4  5  1  0
  5  6  1  0
  6  7  1  0
  7  8  1  0
  8  9  2  0
  1 10  1  0
  1 11  1  0
  2 12  1  0
  2 13  1  0
  3 14  1  0
  3 15  1  0
  5 16  1  0
  5 17  1  0
  6 18  1  0
  6 19  1  0
  7 20  1  0
  8 21  1  0
M  END
>  <Pepforge_Template_Token>  (1) 
AEEA

>  <Pepforge_Template_Category>  (1) 
linker

>  <Pepforge_Template_Mode>  (1) 
manifest_driven_template_checked_v120

>  <Pepforge_Version>  (1) 
1.2.0

>  <Pepforge_Curation_Status>  (1) 
rdkit_generated_template_checked_v120

$$$$
