Ahx
     RDKit          3D

 21 20  0  0  0  0  0  0  0  0999 V2000
   -2.8795    0.5904   -1.0109 N   0  0  0  0  0  0  0  0  0  0  0  0
   -2.3306    0.9149    0.3014 C   0  0  0  0  0  0  0  0  0  0  0  0
   -1.2246   -0.0586    0.7114 C   0  0  0  0  0  0  0  0  0  0  0  0
    0.0101    0.0257   -0.1915 C   0  0  0  0  0  0  0  0  0  0  0  0
    1.1055   -0.9382    0.2762 C   0  0  0  0  0  0  0  0  0  0  0  0
    2.3510   -0.8685   -0.6030 C   0  0  0  0  0  0  0  0  0  0  0  0
    3.1939    0.3641   -0.3712 C   0  0  0  0  0  0  0  0  0  0  0  0
    3.0133    1.1792    0.5270 O   0  0  0  0  0  0  0  0  0  0  0  0
   -3.6415    1.2331   -1.2236 H   0  0  0  0  0  0  0  0  0  0  0  0
   -3.2911   -0.3416   -0.9867 H   0  0  0  0  0  0  0  0  0  0  0  0
   -3.1364    0.8790    1.0428 H   0  0  0  0  0  0  0  0  0  0  0  0
   -1.9430    1.9392    0.2879 H   0  0  0  0  0  0  0  0  0  0  0  0
   -1.6142   -1.0844    0.7135 H   0  0  0  0  0  0  0  0  0  0  0  0
   -0.9303    0.1681    1.7437 H   0  0  0  0  0  0  0  0  0  0  0  0
    0.3882    1.0545   -0.1909 H   0  0  0  0  0  0  0  0  0  0  0  0
   -0.2632   -0.2165   -1.2253 H   0  0  0  0  0  0  0  0  0  0  0  0
    1.3655   -0.7307    1.3212 H   0  0  0  0  0  0  0  0  0  0  0  0
    0.7121   -1.9616    0.2417 H   0  0  0  0  0  0  0  0  0  0  0  0
    2.0792   -0.8998   -1.6635 H   0  0  0  0  0  0  0  0  0  0  0  0
    2.9941   -1.7312   -0.3966 H   0  0  0  0  0  0  0  0  0  0  0  0
    4.0415    0.4829   -1.0682 H   0  0  0  0  0  0  0  0  0  0  0  0
  1  2  1  0
  2  3  1  0
  3  4  1  0
  4  5  1  0
  5  6  1  0
  6  7  1  0
  7  8  2  0
  1  9  1  0
  1 10  1  0
  2 11  1  0
  2 12  1  0
  3 13  1  0
  3 14  1  0
  4 15  1  0
  4 16  1  0
  5 17  1  0
  5 18  1  0
  6 19  1  0
  6 20  1  0
  7 21  1  0
M  END
>  <Pepforge_Template_Token>  (1) 
Ahx

>  <Pepforge_Template_Category>  (1) 
linker

>  <Pepforge_Template_Mode>  (1) 
manifest_driven_template_checked_v120

>  <Pepforge_Version>  (1) 
1.2.0

>  <Pepforge_Curation_Status>  (1) 
rdkit_generated_template_checked_v120

$$$$
