Aib
     RDKit          3D

 15 14  0  0  0  0  0  0  0  0999 V2000
   -0.8895    0.2281    1.2877 N   0  0  0  0  0  0  0  0  0  0  0  0
    0.0250    0.0797    0.1401 C   0  0  0  0  0  0  0  0  0  0  0  0
    0.7547   -1.2596    0.2546 C   0  0  0  0  0  0  0  0  0  0  0  0
   -0.7672    0.1494   -1.1673 C   0  0  0  0  0  0  0  0  0  0  0  0
    1.0596    1.2083    0.2186 C   0  0  0  0  0  0  0  0  0  0  0  0
    1.1152    2.1585   -0.5586 O   0  0  0  0  0  0  0  0  0  0  0  0
   -1.5992   -0.5043    1.2520 H   0  0  0  0  0  0  0  0  0  0  0  0
   -1.4032    1.1069    1.1892 H   0  0  0  0  0  0  0  0  0  0  0  0
    1.3196   -1.3317    1.1919 H   0  0  0  0  0  0  0  0  0  0  0  0
    0.0562   -2.1035    0.2181 H   0  0  0  0  0  0  0  0  0  0  0  0
    1.4744   -1.3840   -0.5631 H   0  0  0  0  0  0  0  0  0  0  0  0
   -1.5057   -0.6578   -1.2328 H   0  0  0  0  0  0  0  0  0  0  0  0
   -0.1017    0.0649   -2.0344 H   0  0  0  0  0  0  0  0  0  0  0  0
   -1.3024    1.1016   -1.2631 H   0  0  0  0  0  0  0  0  0  0  0  0
    1.7642    1.1435    1.0670 H   0  0  0  0  0  0  0  0  0  0  0  0
  1  2  1  0
  2  3  1  0
  2  4  1  0
  2  5  1  0
  5  6  2  0
  1  7  1  0
  1  8  1  0
  3  9  1  0
  3 10  1  0
  3 11  1  0
  4 12  1  0
  4 13  1  0
  4 14  1  0
  5 15  1  0
M  END
>  <Pepforge_Template_Token>  (1) 
Aib

>  <Pepforge_Template_Category>  (1) 
non_natural_aa

>  <Pepforge_Template_Mode>  (1) 
manifest_driven_template_checked_v120

>  <Pepforge_Version>  (1) 
1.2.0

>  <Pepforge_Curation_Status>  (1) 
rdkit_generated_template_checked_v120

$$$$
