bAla
     RDKit          3D

 12 11  0  0  0  0  0  0  0  0999 V2000
   -1.8630   -0.5232    0.1191 N   0  0  0  0  0  0  0  0  0  0  0  0
   -0.4154   -0.5716   -0.0552 C   0  0  0  0  0  0  0  0  0  0  0  0
    0.2937    0.4701    0.7980 C   0  0  0  0  0  0  0  0  0  0  0  0
    1.7788    0.3690    0.5811 C   0  0  0  0  0  0  0  0  0  0  0  0
    2.4821    1.3297    0.2844 O   0  0  0  0  0  0  0  0  0  0  0  0
   -2.2168    0.3928   -0.1588 H   0  0  0  0  0  0  0  0  0  0  0  0
   -2.1070   -0.6325    1.1030 H   0  0  0  0  0  0  0  0  0  0  0  0
   -0.0629   -1.5768    0.2026 H   0  0  0  0  0  0  0  0  0  0  0  0
   -0.1781   -0.4201   -1.1145 H   0  0  0  0  0  0  0  0  0  0  0  0
    0.0981    0.3059    1.8630 H   0  0  0  0  0  0  0  0  0  0  0  0
   -0.0352    1.4820    0.5373 H   0  0  0  0  0  0  0  0  0  0  0  0
    2.2259   -0.6253    0.7529 H   0  0  0  0  0  0  0  0  0  0  0  0
  1  2  1  0
  2  3  1  0
  3  4  1  0
  4  5  2  0
  1  6  1  0
  1  7  1  0
  2  8  1  0
  2  9  1  0
  3 10  1  0
  3 11  1  0
  4 12  1  0
M  END
>  <Pepforge_Template_Token>  (1) 
bAla

>  <Pepforge_Template_Category>  (1) 
linker

>  <Pepforge_Template_Mode>  (1) 
manifest_driven_template_checked_v120

>  <Pepforge_Version>  (1) 
1.2.0

>  <Pepforge_Curation_Status>  (1) 
rdkit_generated_template_checked_v120

$$$$
