Biotin
     RDKit          3D

 31 32  0  0  0  0  0  0  0  0999 V2000
   -2.9298   -0.1700   -0.3028 C   0  0  1  0  0  0  0  0  0  0  0  0
   -1.6545   -0.2316   -1.1664 C   0  0  2  0  0  0  0  0  0  0  0  0
   -1.3705   -1.6441   -1.2293 N   0  0  0  0  0  0  0  0  0  0  0  0
   -2.1517   -2.3596   -0.3454 C   0  0  0  0  0  0  0  0  0  0  0  0
   -2.9630   -1.4687    0.3341 N   0  0  0  0  0  0  0  0  0  0  0  0
   -2.1474   -3.5673   -0.2078 O   0  0  0  0  0  0  0  0  0  0  0  0
   -0.5492    0.6303   -0.5286 C   0  0  1  0  0  0  0  0  0  0  0  0
   -1.5132    2.0440    0.0927 S   0  0  0  0  0  0  0  0  0  0  0  0
   -2.8851    1.0087    0.6617 C   0  0  0  0  0  0  0  0  0  0  0  0
    0.2581   -0.0543    0.5915 C   0  0  0  0  0  0  0  0  0  0  0  0
    1.3215    0.8151    1.2816 C   0  0  0  0  0  0  0  0  0  0  0  0
    2.3706    1.4530    0.3618 C   0  0  0  0  0  0  0  0  0  0  0  0
    3.2029    0.4641   -0.4512 C   0  0  0  0  0  0  0  0  0  0  0  0
    4.1784   -0.3447    0.3721 C   0  0  0  0  0  0  0  0  0  0  0  0
    4.3977   -0.1755    1.5662 O   0  0  0  0  0  0  0  0  0  0  0  0
   -3.8191   -0.1152   -0.9433 H   0  0  0  0  0  0  0  0  0  0  0  0
   -1.8665    0.1188   -2.1845 H   0  0  0  0  0  0  0  0  0  0  0  0
   -0.7439   -2.1166   -1.8673 H   0  0  0  0  0  0  0  0  0  0  0  0
   -3.7574   -1.8524    0.8306 H   0  0  0  0  0  0  0  0  0  0  0  0
    0.1341    0.9699   -1.3137 H   0  0  0  0  0  0  0  0  0  0  0  0
   -3.8174    1.5803    0.6376 H   0  0  0  0  0  0  0  0  0  0  0  0
   -2.7037    0.6959    1.6949 H   0  0  0  0  0  0  0  0  0  0  0  0
   -0.4157   -0.4349    1.3696 H   0  0  0  0  0  0  0  0  0  0  0  0
    0.7573   -0.9400    0.1803 H   0  0  0  0  0  0  0  0  0  0  0  0
    0.8285    1.6146    1.8474 H   0  0  0  0  0  0  0  0  0  0  0  0
    1.8267    0.1969    2.0334 H   0  0  0  0  0  0  0  0  0  0  0  0
    1.8749    2.1461   -0.3274 H   0  0  0  0  0  0  0  0  0  0  0  0
    3.0384    2.0676    0.9787 H   0  0  0  0  0  0  0  0  0  0  0  0
    3.8008    1.0166   -1.1852 H   0  0  0  0  0  0  0  0  0  0  0  0
    2.5676   -0.2306   -1.0079 H   0  0  0  0  0  0  0  0  0  0  0  0
    4.7309   -1.1166   -0.1912 H   0  0  0  0  0  0  0  0  0  0  0  0
  1  2  1  0
  2  3  1  0
  3  4  1  0
  4  5  1  0
  4  6  2  0
  2  7  1  0
  7  8  1  0
  8  9  1  0
  7 10  1  0
 10 11  1  0
 11 12  1  0
 12 13  1  0
 13 14  1  0
 14 15  2  0
  5  1  1  0
  9  1  1  0
  1 16  1  6
  2 17  1  6
  3 18  1  0
  5 19  1  0
  7 20  1  6
  9 21  1  0
  9 22  1  0
 10 23  1  0
 10 24  1  0
 11 25  1  0
 11 26  1  0
 12 27  1  0
 12 28  1  0
 13 29  1  0
 13 30  1  0
 14 31  1  0
M  END
>  <Pepforge_TemplateRole>  (1) 
explicit_attachment_fragment

>  <Pepforge_CurationStatus>  (1) 
verified_database_structure_and_explicit_amide_rule

>  <Pepforge_Source>  (1) 
PubChem CID 171548 / biotin connectivity; peptide-bound amide rule

>  <Pepforge_Notice>  (1) 
Attachment fragment for connected peptide construction; not a claim that this SDF is the free labeling reagent.

$$$$
