Biotin
     RDKit          3D

 31 32  0  0  0  0  0  0  0  0999 V2000
    4.6882    1.1395    0.4629 N   0  0  0  0  0  0  0  0  0  0  0  0
    4.2441    0.1804   -0.5412 C   0  0  0  0  0  0  0  0  0  0  0  0
    2.9626   -0.5427   -0.1217 C   0  0  0  0  0  0  0  0  0  0  0  0
    1.7453    0.3823   -0.0161 C   0  0  0  0  0  0  0  0  0  0  0  0
    0.4781   -0.4117    0.3278 C   0  0  0  0  0  0  0  0  0  0  0  0
   -0.7579    0.4774    0.5444 C   0  0  0  0  0  0  0  0  0  0  0  0
   -1.3076    1.2656   -1.0024 S   0  0  0  0  0  0  0  0  0  0  0  0
   -2.3176   -0.1472   -1.5129 C   0  0  0  0  0  0  0  0  0  0  0  0
   -2.7275   -0.9018   -0.2448 C   0  0  0  0  0  0  0  0  0  0  0  0
   -4.1148   -0.6840    0.1064 N   0  0  0  0  0  0  0  0  0  0  0  0
   -4.2473    0.1297    1.2098 C   0  0  0  0  0  0  0  0  0  0  0  0
   -5.2960    0.5011    1.7000 O   0  0  0  0  0  0  0  0  0  0  0  0
   -2.9847    0.4248    1.6763 N   0  0  0  0  0  0  0  0  0  0  0  0
   -1.9719   -0.3477    0.9813 C   0  0  0  0  0  0  0  0  0  0  0  0
    5.5659    1.5605    0.1590 H   0  0  0  0  0  0  0  0  0  0  0  0
    4.0214    1.9079    0.5252 H   0  0  0  0  0  0  0  0  0  0  0  0
    4.0958    0.6917   -1.4988 H   0  0  0  0  0  0  0  0  0  0  0  0
    5.0364   -0.5618   -0.6873 H   0  0  0  0  0  0  0  0  0  0  0  0
    3.1237   -1.0522    0.8368 H   0  0  0  0  0  0  0  0  0  0  0  0
    2.7537   -1.3257   -0.8615 H   0  0  0  0  0  0  0  0  0  0  0  0
    1.9135    1.1380    0.7595 H   0  0  0  0  0  0  0  0  0  0  0  0
    1.6173    0.9121   -0.9664 H   0  0  0  0  0  0  0  0  0  0  0  0
    0.2897   -1.1631   -0.4496 H   0  0  0  0  0  0  0  0  0  0  0  0
    0.6662   -0.9710    1.2539 H   0  0  0  0  0  0  0  0  0  0  0  0
   -0.5274    1.2543    1.2818 H   0  0  0  0  0  0  0  0  0  0  0  0
   -1.6925   -0.7884   -2.1428 H   0  0  0  0  0  0  0  0  0  0  0  0
   -3.1720    0.1851   -2.1102 H   0  0  0  0  0  0  0  0  0  0  0  0
   -2.5788   -1.9791   -0.3730 H   0  0  0  0  0  0  0  0  0  0  0  0
   -4.9303   -0.9842   -0.4112 H   0  0  0  0  0  0  0  0  0  0  0  0
   -2.8849    0.8648    2.5816 H   0  0  0  0  0  0  0  0  0  0  0  0
   -1.6905   -1.1547    1.6684 H   0  0  0  0  0  0  0  0  0  0  0  0
  1  2  1  0
  2  3  1  0
  3  4  1  0
  4  5  1  0
  5  6  1  0
  6  7  1  0
  7  8  1  0
  8  9  1  0
  9 10  1  0
 10 11  1  0
 11 12  2  0
 11 13  1  0
 13 14  1  0
 14  6  1  0
 14  9  1  0
  1 15  1  0
  1 16  1  0
  2 17  1  0
  2 18  1  0
  3 19  1  0
  3 20  1  0
  4 21  1  0
  4 22  1  0
  5 23  1  0
  5 24  1  0
  6 25  1  0
  8 26  1  0
  8 27  1  0
  9 28  1  0
 10 29  1  0
 13 30  1  0
 14 31  1  0
M  END
>  <Pepforge_Template_Token>  (1) 
Biotin

>  <Pepforge_Template_Category>  (1) 
label

>  <Pepforge_Template_Mode>  (1) 
manifest_driven_template_checked_v120

>  <Pepforge_Version>  (1) 
1.2.0

>  <Pepforge_Curation_Status>  (1) 
rdkit_generated_template_checked_v120

$$$$
