Caf
     RDKit          3D

 20 20  0  0  0  0  0  0  0  0999 V2000
   -4.5516   -0.3605   -0.5182 O   0  0  0  0  0  0  0  0  0  0  0  0
   -3.9964    0.5233    0.1207 C   0  0  0  0  0  0  0  0  0  0  0  0
   -2.5278    0.6216    0.2855 C   0  0  0  0  0  0  0  0  0  0  0  0
   -1.7255   -0.3005   -0.2652 C   0  0  0  0  0  0  0  0  0  0  0  0
   -0.2633   -0.2915   -0.1322 C   0  0  0  0  0  0  0  0  0  0  0  0
    0.4026   -1.5112    0.0560 C   0  0  0  0  0  0  0  0  0  0  0  0
    1.7955   -1.5553    0.1691 C   0  0  0  0  0  0  0  0  0  0  0  0
    2.5298   -0.3762    0.0808 C   0  0  0  0  0  0  0  0  0  0  0  0
    3.8915   -0.3996    0.1886 O   0  0  0  0  0  0  0  0  0  0  0  0
    1.8797    0.8400   -0.1260 C   0  0  0  0  0  0  0  0  0  0  0  0
    2.6205    1.9852   -0.2237 O   0  0  0  0  0  0  0  0  0  0  0  0
    0.4891    0.8872   -0.2369 C   0  0  0  0  0  0  0  0  0  0  0  0
   -4.5657    1.3210    0.6262 H   0  0  0  0  0  0  0  0  0  0  0  0
   -2.1639    1.4514    0.8778 H   0  0  0  0  0  0  0  0  0  0  0  0
   -2.1489   -1.1329   -0.8262 H   0  0  0  0  0  0  0  0  0  0  0  0
   -0.1608   -2.4400    0.1254 H   0  0  0  0  0  0  0  0  0  0  0  0
    2.2843   -2.5122    0.3228 H   0  0  0  0  0  0  0  0  0  0  0  0
    4.1841   -1.3145    0.3183 H   0  0  0  0  0  0  0  0  0  0  0  0
    2.0346    2.7297   -0.4266 H   0  0  0  0  0  0  0  0  0  0  0  0
   -0.0078    1.8352   -0.4161 H   0  0  0  0  0  0  0  0  0  0  0  0
  1  2  2  0
  2  3  1  0
  3  4  2  0
  4  5  1  0
  5  6  2  0
  6  7  1  0
  7  8  2  0
  8  9  1  0
  8 10  1  0
 10 11  1  0
 10 12  2  0
 12  5  1  0
  2 13  1  0
  3 14  1  0
  4 15  1  0
  6 16  1  0
  7 17  1  0
  9 18  1  0
 11 19  1  0
 12 20  1  0
M  END
>  <Pepforge_TemplateRole>  (1) 
explicit_attachment_fragment

>  <Pepforge_CurationStatus>  (1) 
buildable_only_as_explicit_N_terminal_or_sidechain_acyl

>  <Pepforge_Source>  (1) 
explicit_acyl_attachment_rule

>  <Pepforge_Notice>  (1) 
Attachment fragment for connected peptide construction; not a claim that this SDF is the free labeling reagent.

$$$$
