Cha
     RDKit          3D

 28 28  0  0  0  0  0  0  0  0999 V2000
   -3.7336   -0.5722    0.1699 N   0  0  0  0  0  0  0  0  0  0  0  0
   -2.4461    0.1329    0.3044 C   0  0  1  0  0  0  0  0  0  0  0  0
   -1.3205   -0.7426   -0.2658 C   0  0  0  0  0  0  0  0  0  0  0  0
    0.0966   -0.3889    0.2445 C   0  0  0  0  0  0  0  0  0  0  0  0
    0.5564    1.0218   -0.1544 C   0  0  0  0  0  0  0  0  0  0  0  0
    1.9956    1.3050    0.2746 C   0  0  0  0  0  0  0  0  0  0  0  0
    2.9630    0.2479   -0.2422 C   0  0  0  0  0  0  0  0  0  0  0  0
    2.5259   -1.1504    0.1752 C   0  0  0  0  0  0  0  0  0  0  0  0
    1.0960   -1.4436   -0.2689 C   0  0  0  0  0  0  0  0  0  0  0  0
   -2.5811    1.4458   -0.4585 C   0  0  0  0  0  0  0  0  0  0  0  0
   -2.8261    2.5194    0.0879 O   0  0  0  0  0  0  0  0  0  0  0  0
   -4.4658    0.0118    0.5818 H   0  0  0  0  0  0  0  0  0  0  0  0
   -3.7120   -1.4202    0.7364 H   0  0  0  0  0  0  0  0  0  0  0  0
   -2.2688    0.3535    1.3627 H   0  0  0  0  0  0  0  0  0  0  0  0
   -1.3324   -0.7120   -1.3636 H   0  0  0  0  0  0  0  0  0  0  0  0
   -1.5114   -1.7881    0.0145 H   0  0  0  0  0  0  0  0  0  0  0  0
    0.0849   -0.4452    1.3417 H   0  0  0  0  0  0  0  0  0  0  0  0
    0.4713    1.1476   -1.2411 H   0  0  0  0  0  0  0  0  0  0  0  0
   -0.0844    1.7770    0.3112 H   0  0  0  0  0  0  0  0  0  0  0  0
    2.2998    2.2924   -0.0907 H   0  0  0  0  0  0  0  0  0  0  0  0
    2.0468    1.3414    1.3699 H   0  0  0  0  0  0  0  0  0  0  0  0
    3.0178    0.3043   -1.3363 H   0  0  0  0  0  0  0  0  0  0  0  0
    3.9700    0.4499    0.1397 H   0  0  0  0  0  0  0  0  0  0  0  0
    3.2055   -1.8934   -0.2573 H   0  0  0  0  0  0  0  0  0  0  0  0
    2.5976   -1.2479    1.2655 H   0  0  0  0  0  0  0  0  0  0  0  0
    0.8079   -2.4379    0.0933 H   0  0  0  0  0  0  0  0  0  0  0  0
    1.0615   -1.4837   -1.3653 H   0  0  0  0  0  0  0  0  0  0  0  0
   -2.5143    1.3754   -1.5581 H   0  0  0  0  0  0  0  0  0  0  0  0
  1  2  1  0
  2  3  1  0
  3  4  1  0
  4  5  1  0
  5  6  1  0
  6  7  1  0
  7  8  1  0
  8  9  1  0
  2 10  1  0
 10 11  2  0
  9  4  1  0
  1 12  1  0
  1 13  1  0
  2 14  1  1
  3 15  1  0
  3 16  1  0
  4 17  1  0
  5 18  1  0
  5 19  1  0
  6 20  1  0
  6 21  1  0
  7 22  1  0
  7 23  1  0
  8 24  1  0
  8 25  1  0
  9 26  1  0
  9 27  1  0
 10 28  1  0
M  END
>  <Pepforge_Template_Token>  (1) 
Cha

>  <Pepforge_Template_Category>  (1) 
non_natural_aa

>  <Pepforge_Template_Mode>  (1) 
manifest_driven_template_checked_v120

>  <Pepforge_Version>  (1) 
1.2.0

>  <Pepforge_Curation_Status>  (1) 
rdkit_generated_template_checked_v120

$$$$
