Chol
     RDKit          3D

 78 81  0  0  0  0  0  0  0  0999 V2000
   10.9568    2.4710   -1.5582 N   0  0  0  0  0  0  0  0  0  0  0  0
   10.0793    1.4024   -1.0840 C   0  0  0  0  0  0  0  0  0  0  0  0
    8.7185    1.3815   -1.7879 C   0  0  0  0  0  0  0  0  0  0  0  0
    7.9333    0.2659   -1.3370 O   0  0  0  0  0  0  0  0  0  0  0  0
    7.2097    0.4778   -0.2027 C   0  0  0  0  0  0  0  0  0  0  0  0
    7.2040    1.5132    0.4456 O   0  0  0  0  0  0  0  0  0  0  0  0
    6.4381   -0.7722    0.1502 C   0  0  0  0  0  0  0  0  0  0  0  0
    5.1934   -0.4867    0.9884 C   0  0  0  0  0  0  0  0  0  0  0  0
    4.1202    0.2600    0.2010 C   0  0  0  0  0  0  0  0  0  0  0  0
    2.8494    0.3876    1.0020 C   0  0  0  0  0  0  0  0  0  0  0  0
    2.4882    1.4121    1.5603 O   0  0  0  0  0  0  0  0  0  0  0  0
    2.1785   -0.7968    1.0016 O   0  0  0  0  0  0  0  0  0  0  0  0
    0.9299   -0.8232    1.7072 C   0  0  0  0  0  0  0  0  0  0  0  0
    0.6115   -2.2883    2.1079 C   0  0  0  0  0  0  0  0  0  0  0  0
   -0.8879   -2.5213    1.8092 C   0  0  0  0  0  0  0  0  0  0  0  0
   -1.4635   -1.1070    1.6213 C   0  0  0  0  0  0  0  0  0  0  0  0
   -1.6617   -0.5315    3.0717 C   0  0  0  0  0  0  0  0  0  0  0  0
   -2.8426   -0.9279    0.9107 C   0  0  0  0  0  0  0  0  0  0  0  0
   -3.4421   -2.1614    0.2280 C   0  0  0  0  0  0  0  0  0  0  0  0
   -4.8984   -1.8867   -0.1788 C   0  0  0  0  0  0  0  0  0  0  0  0
   -5.0968   -0.6091   -1.0419 C   0  0  0  0  0  0  0  0  0  0  0  0
   -4.5513   -0.9122   -2.4630 C   0  0  0  0  0  0  0  0  0  0  0  0
   -6.6216   -0.3110   -1.1662 C   0  0  0  0  0  0  0  0  0  0  0  0
   -6.9858    1.1783   -1.1072 C   0  0  0  0  0  0  0  0  0  0  0  0
   -8.2636    1.3573   -1.7103 O   0  0  0  0  0  0  0  0  0  0  0  0
   -5.9554    2.0549   -1.8052 C   0  0  0  0  0  0  0  0  0  0  0  0
   -4.5537    1.8990   -1.2115 C   0  0  0  0  0  0  0  0  0  0  0  0
   -4.3750    0.6135   -0.3794 C   0  0  0  0  0  0  0  0  0  0  0  0
   -2.8899    0.2907   -0.0613 C   0  0  0  0  0  0  0  0  0  0  0  0
   -2.0476    1.4643    0.4639 C   0  0  0  0  0  0  0  0  0  0  0  0
   -0.5701    1.0984    0.7497 C   0  0  0  0  0  0  0  0  0  0  0  0
   -0.2974   -0.4178    0.8410 C   0  0  0  0  0  0  0  0  0  0  0  0
   -0.0407   -0.9914   -0.5916 C   0  0  0  0  0  0  0  0  0  0  0  0
   11.0820    2.3994   -2.5672 H   0  0  0  0  0  0  0  0  0  0  0  0
   10.5166    3.3756   -1.3860 H   0  0  0  0  0  0  0  0  0  0  0  0
    9.9434    1.5055   -0.0022 H   0  0  0  0  0  0  0  0  0  0  0  0
   10.5780    0.4376   -1.2302 H   0  0  0  0  0  0  0  0  0  0  0  0
    8.1761    2.3252   -1.6491 H   0  0  0  0  0  0  0  0  0  0  0  0
    8.8570    1.2514   -2.8669 H   0  0  0  0  0  0  0  0  0  0  0  0
    7.1161   -1.4277    0.7075 H   0  0  0  0  0  0  0  0  0  0  0  0
    6.1448   -1.2874   -0.7711 H   0  0  0  0  0  0  0  0  0  0  0  0
    4.7898   -1.4428    1.3428 H   0  0  0  0  0  0  0  0  0  0  0  0
    5.4574    0.0865    1.8851 H   0  0  0  0  0  0  0  0  0  0  0  0
    3.8863   -0.2484   -0.7411 H   0  0  0  0  0  0  0  0  0  0  0  0
    4.4548    1.2688   -0.0636 H   0  0  0  0  0  0  0  0  0  0  0  0
    1.0141   -0.2169    2.6168 H   0  0  0  0  0  0  0  0  0  0  0  0
    0.8123   -2.4293    3.1757 H   0  0  0  0  0  0  0  0  0  0  0  0
    1.2312   -3.0142    1.5702 H   0  0  0  0  0  0  0  0  0  0  0  0
   -0.9817   -3.1219    0.8983 H   0  0  0  0  0  0  0  0  0  0  0  0
   -1.3728   -3.0823    2.6149 H   0  0  0  0  0  0  0  0  0  0  0  0
   -0.7711   -0.5999    3.7014 H   0  0  0  0  0  0  0  0  0  0  0  0
   -1.9715    0.5164    3.0680 H   0  0  0  0  0  0  0  0  0  0  0  0
   -2.4426   -1.0969    3.5966 H   0  0  0  0  0  0  0  0  0  0  0  0
   -3.5628   -0.6933    1.7101 H   0  0  0  0  0  0  0  0  0  0  0  0
   -3.4406   -3.0137    0.9171 H   0  0  0  0  0  0  0  0  0  0  0  0
   -2.8489   -2.4547   -0.6443 H   0  0  0  0  0  0  0  0  0  0  0  0
   -5.4878   -1.7931    0.7441 H   0  0  0  0  0  0  0  0  0  0  0  0
   -5.2971   -2.7648   -0.7031 H   0  0  0  0  0  0  0  0  0  0  0  0
   -4.6889   -0.0731   -3.1503 H   0  0  0  0  0  0  0  0  0  0  0  0
   -3.4871   -1.1605   -2.4626 H   0  0  0  0  0  0  0  0  0  0  0  0
   -5.0724   -1.7727   -2.9014 H   0  0  0  0  0  0  0  0  0  0  0  0
   -7.0241   -0.7557   -2.0866 H   0  0  0  0  0  0  0  0  0  0  0  0
   -7.1810   -0.8090   -0.3628 H   0  0  0  0  0  0  0  0  0  0  0  0
   -7.0792    1.4860   -0.0581 H   0  0  0  0  0  0  0  0  0  0  0  0
   -8.4946    2.2992   -1.6338 H   0  0  0  0  0  0  0  0  0  0  0  0
   -6.2612    3.1074   -1.7641 H   0  0  0  0  0  0  0  0  0  0  0  0
   -5.9387    1.8148   -2.8756 H   0  0  0  0  0  0  0  0  0  0  0  0
   -3.8164    1.9465   -2.0219 H   0  0  0  0  0  0  0  0  0  0  0  0
   -4.3541    2.7645   -0.5671 H   0  0  0  0  0  0  0  0  0  0  0  0
   -4.8685    0.8009    0.5867 H   0  0  0  0  0  0  0  0  0  0  0  0
   -2.4455    0.0292   -1.0214 H   0  0  0  0  0  0  0  0  0  0  0  0
   -2.0514    2.2916   -0.2556 H   0  0  0  0  0  0  0  0  0  0  0  0
   -2.5090    1.8641    1.3749 H   0  0  0  0  0  0  0  0  0  0  0  0
    0.0630    1.5487   -0.0249 H   0  0  0  0  0  0  0  0  0  0  0  0
   -0.2768    1.5968    1.6820 H   0  0  0  0  0  0  0  0  0  0  0  0
    0.6314   -0.3350   -1.1577 H   0  0  0  0  0  0  0  0  0  0  0  0
   -0.9349   -1.1303   -1.1930 H   0  0  0  0  0  0  0  0  0  0  0  0
    0.4412   -1.9757   -0.5668 H   0  0  0  0  0  0  0  0  0  0  0  0
  1  2  1  0
  2  3  1  0
  3  4  1  0
  4  5  1  0
  5  6  2  0
  5  7  1  0
  7  8  1  0
  8  9  1  0
  9 10  1  0
 10 11  2  0
 10 12  1  0
 12 13  1  0
 13 14  1  0
 14 15  1  0
 15 16  1  0
 16 17  1  0
 16 18  1  0
 18 19  1  0
 19 20  1  0
 20 21  1  0
 21 22  1  0
 21 23  1  0
 23 24  1  0
 24 25  1  0
 24 26  1  0
 26 27  1  0
 27 28  1  0
 28 29  1  0
 29 30  1  0
 30 31  1  0
 31 32  1  0
 32 33  1  0
 32 13  1  0
 32 16  1  0
 29 18  1  0
 28 21  1  0
  1 34  1  0
  1 35  1  0
  2 36  1  0
  2 37  1  0
  3 38  1  0
  3 39  1  0
  7 40  1  0
  7 41  1  0
  8 42  1  0
  8 43  1  0
  9 44  1  0
  9 45  1  0
 13 46  1  0
 14 47  1  0
 14 48  1  0
 15 49  1  0
 15 50  1  0
 17 51  1  0
 17 52  1  0
 17 53  1  0
 18 54  1  0
 19 55  1  0
 19 56  1  0
 20 57  1  0
 20 58  1  0
 22 59  1  0
 22 60  1  0
 22 61  1  0
 23 62  1  0
 23 63  1  0
 24 64  1  0
 25 65  1  0
 26 66  1  0
 26 67  1  0
 27 68  1  0
 27 69  1  0
 28 70  1  0
 29 71  1  0
 30 72  1  0
 30 73  1  0
 31 74  1  0
 31 75  1  0
 33 76  1  0
 33 77  1  0
 33 78  1  0
M  END
>  <Pepforge_Template_Token>  (1) 
Chol

>  <Pepforge_Template_Category>  (1) 
chemical

>  <Pepforge_Template_Mode>  (1) 
manifest_driven_template_checked_v120

>  <Pepforge_Version>  (1) 
1.2.0

>  <Pepforge_Curation_Status>  (1) 
rdkit_generated_template_checked_v120

$$$$
