Cit
     RDKit          3D

 24 23  0  0  0  0  0  0  0  0999 V2000
   -3.7435    0.0775   -0.3716 N   0  0  0  0  0  0  0  0  0  0  0  0
   -2.3695   -0.4188   -0.1711 C   0  0  1  0  0  0  0  0  0  0  0  0
   -1.3676    0.7159   -0.4186 C   0  0  0  0  0  0  0  0  0  0  0  0
    0.0566    0.2575   -0.7615 C   0  0  0  0  0  0  0  0  0  0  0  0
    0.8074   -0.4148    0.3870 C   0  0  0  0  0  0  0  0  0  0  0  0
    2.2230   -0.5393    0.1047 N   0  0  0  0  0  0  0  0  0  0  0  0
    3.0663    0.5227    0.2374 C   0  0  0  0  0  0  0  0  0  0  0  0
    2.7605    1.6351    0.6373 O   0  0  0  0  0  0  0  0  0  0  0  0
    4.3355    0.2163   -0.1313 N   0  0  0  0  0  0  0  0  0  0  0  0
   -2.2781   -0.9424    1.2582 C   0  0  0  0  0  0  0  0  0  0  0  0
   -1.7840   -2.0273    1.5552 O   0  0  0  0  0  0  0  0  0  0  0  0
   -3.8714    0.9705    0.1053 H   0  0  0  0  0  0  0  0  0  0  0  0
   -3.8836    0.2765   -1.3630 H   0  0  0  0  0  0  0  0  0  0  0  0
   -2.1989   -1.2547   -0.8580 H   0  0  0  0  0  0  0  0  0  0  0  0
   -1.3330    1.3952    0.4431 H   0  0  0  0  0  0  0  0  0  0  0  0
   -1.7115    1.3164   -1.2721 H   0  0  0  0  0  0  0  0  0  0  0  0
    0.0336   -0.4158   -1.6276 H   0  0  0  0  0  0  0  0  0  0  0  0
    0.6140    1.1447   -1.0886 H   0  0  0  0  0  0  0  0  0  0  0  0
    0.6878    0.1567    1.3140 H   0  0  0  0  0  0  0  0  0  0  0  0
    0.4394   -1.4305    0.5477 H   0  0  0  0  0  0  0  0  0  0  0  0
    2.5100   -1.2460   -0.5568 H   0  0  0  0  0  0  0  0  0  0  0  0
    4.9872    0.9615    0.0826 H   0  0  0  0  0  0  0  0  0  0  0  0
    4.6586   -0.6994    0.1459 H   0  0  0  0  0  0  0  0  0  0  0  0
   -2.6387   -0.2574    2.0455 H   0  0  0  0  0  0  0  0  0  0  0  0
  1  2  1  0
  2  3  1  0
  3  4  1  0
  4  5  1  0
  5  6  1  0
  6  7  1  0
  7  8  2  0
  7  9  1  0
  2 10  1  0
 10 11  2  0
  1 12  1  0
  1 13  1  0
  2 14  1  6
  3 15  1  0
  3 16  1  0
  4 17  1  0
  4 18  1  0
  5 19  1  0
  5 20  1  0
  6 21  1  0
  9 22  1  0
  9 23  1  0
 10 24  1  0
M  END
>  <Pepforge_Template_Token>  (1) 
Cit

>  <Pepforge_Template_Category>  (1) 
non_natural_aa

>  <Pepforge_Template_Mode>  (1) 
manifest_driven_template_checked_v120

>  <Pepforge_Version>  (1) 
1.2.0

>  <Pepforge_Curation_Status>  (1) 
rdkit_generated_template_checked_v120

$$$$
