Cy5
     RDKit          3D

 27 27  0  0  0  0  0  0  0  0999 V2000
    5.1298   -0.2216   -1.9330 N   0  0  0  0  0  0  0  0  0  0  0  0
    4.9309   -0.5881   -0.5394 C   0  0  0  0  0  0  0  0  0  0  0  0
    3.5293   -0.3906   -0.0435 C   0  0  0  0  0  0  0  0  0  0  0  0
    2.4563   -0.0333   -0.7682 C   0  0  0  0  0  0  0  0  0  0  0  0
    1.1393    0.1333   -0.1946 C   0  0  0  0  0  0  0  0  0  0  0  0
    0.0698    0.4897   -0.9225 C   0  0  0  0  0  0  0  0  0  0  0  0
   -1.2591    0.6927   -0.3855 C   0  0  0  0  0  0  0  0  0  0  0  0
   -1.8725   -0.1566    0.4549 C   0  0  0  0  0  0  0  0  0  0  0  0
   -3.1581   -0.0261    0.9858 N   0  0  0  0  0  0  0  0  0  0  0  0
   -4.0746    0.9900    0.7826 C   0  0  0  0  0  0  0  0  0  0  0  0
   -5.2215    0.7242    1.4983 C   0  0  0  0  0  0  0  0  0  0  0  0
   -5.0183   -0.4964    2.1722 C   0  0  0  0  0  0  0  0  0  0  0  0
   -3.7545   -0.9332    1.8447 C   0  0  0  0  0  0  0  0  0  0  0  0
    5.0207    0.7876   -2.0222 H   0  0  0  0  0  0  0  0  0  0  0  0
    6.0939   -0.4215   -2.1930 H   0  0  0  0  0  0  0  0  0  0  0  0
    5.2000   -1.6417   -0.4067 H   0  0  0  0  0  0  0  0  0  0  0  0
    5.6124    0.0022    0.0833 H   0  0  0  0  0  0  0  0  0  0  0  0
    3.4076   -0.5715    1.0230 H   0  0  0  0  0  0  0  0  0  0  0  0
    2.5587    0.1318   -1.8391 H   0  0  0  0  0  0  0  0  0  0  0  0
    1.0380   -0.0375    0.8750 H   0  0  0  0  0  0  0  0  0  0  0  0
    0.1748    0.6960   -1.9863 H   0  0  0  0  0  0  0  0  0  0  0  0
   -1.7657    1.5804   -0.7560 H   0  0  0  0  0  0  0  0  0  0  0  0
   -1.3556   -1.0563    0.7786 H   0  0  0  0  0  0  0  0  0  0  0  0
   -3.8394    1.8282    0.1425 H   0  0  0  0  0  0  0  0  0  0  0  0
   -6.1061    1.3472    1.5277 H   0  0  0  0  0  0  0  0  0  0  0  0
   -5.7143   -1.0057    2.8261 H   0  0  0  0  0  0  0  0  0  0  0  0
   -3.2216   -1.8232    2.1515 H   0  0  0  0  0  0  0  0  0  0  0  0
  1  2  1  0
  2  3  1  0
  3  4  2  3
  4  5  1  0
  5  6  2  3
  6  7  1  0
  7  8  2  3
  8  9  1  0
  9 10  1  0
 10 11  2  0
 11 12  1  0
 12 13  2  0
 13  9  1  0
  1 14  1  0
  1 15  1  0
  2 16  1  0
  2 17  1  0
  3 18  1  0
  4 19  1  0
  5 20  1  0
  6 21  1  0
  7 22  1  0
  8 23  1  0
 10 24  1  0
 11 25  1  0
 12 26  1  0
 13 27  1  0
M  END
>  <Pepforge_Template_Token>  (1) 
Cy5

>  <Pepforge_Template_Category>  (1) 
label

>  <Pepforge_Template_Mode>  (1) 
manifest_driven_template_checked_v120

>  <Pepforge_Version>  (1) 
1.2.0

>  <Pepforge_Curation_Status>  (1) 
rdkit_generated_template_checked_v120

$$$$
