Dab
     RDKit          3D

 17 16  0  0  0  0  0  0  0  0999 V2000
   -2.1482   -0.8560    0.0946 N   0  0  0  0  0  0  0  0  0  0  0  0
   -0.9219   -0.1278    0.4608 C   0  0  1  0  0  0  0  0  0  0  0  0
    0.1669   -0.3756   -0.5883 C   0  0  0  0  0  0  0  0  0  0  0  0
    1.5069    0.2392   -0.1738 C   0  0  0  0  0  0  0  0  0  0  0  0
    2.5404   -0.0371   -1.1654 N   0  0  0  0  0  0  0  0  0  0  0  0
   -1.2644    1.3536    0.5400 C   0  0  0  0  0  0  0  0  0  0  0  0
   -1.2669    1.9874    1.5924 O   0  0  0  0  0  0  0  0  0  0  0  0
   -1.9544   -1.8578    0.0832 H   0  0  0  0  0  0  0  0  0  0  0  0
   -2.8414   -0.7224    0.8349 H   0  0  0  0  0  0  0  0  0  0  0  0
   -0.5868   -0.4649    1.4482 H   0  0  0  0  0  0  0  0  0  0  0  0
   -0.1403    0.0376   -1.5587 H   0  0  0  0  0  0  0  0  0  0  0  0
    0.2989   -1.4569   -0.7284 H   0  0  0  0  0  0  0  0  0  0  0  0
    1.8265   -0.1662    0.7923 H   0  0  0  0  0  0  0  0  0  0  0  0
    1.4171    1.3243   -0.0587 H   0  0  0  0  0  0  0  0  0  0  0  0
    2.2612    0.3296   -2.0748 H   0  0  0  0  0  0  0  0  0  0  0  0
    2.6478   -1.0435   -1.2883 H   0  0  0  0  0  0  0  0  0  0  0  0
   -1.5414    1.8365   -0.4135 H   0  0  0  0  0  0  0  0  0  0  0  0
  1  2  1  0
  2  3  1  0
  3  4  1  0
  4  5  1  0
  2  6  1  0
  6  7  2  0
  1  8  1  0
  1  9  1  0
  2 10  1  1
  3 11  1  0
  3 12  1  0
  4 13  1  0
  4 14  1  0
  5 15  1  0
  5 16  1  0
  6 17  1  0
M  END
>  <Pepforge_Template_Token>  (1) 
Dab

>  <Pepforge_Template_Category>  (1) 
non_natural_aa

>  <Pepforge_Template_Mode>  (1) 
manifest_driven_template_checked_v120

>  <Pepforge_Version>  (1) 
1.2.0

>  <Pepforge_Curation_Status>  (1) 
rdkit_generated_template_checked_v120

$$$$
