dAbu
     RDKit          3D

 15 14  0  0  0  0  0  0  0  0999 V2000
   -0.7405   -1.1580    0.8499 N   0  0  0  0  0  0  0  0  0  0  0  0
   -0.5590   -0.2670   -0.2993 C   0  0  2  0  0  0  0  0  0  0  0  0
    0.6278    0.6856   -0.0672 C   0  0  0  0  0  0  0  0  0  0  0  0
    1.9515   -0.0688    0.0493 C   0  0  0  0  0  0  0  0  0  0  0  0
   -1.8195    0.5138   -0.5747 C   0  0  0  0  0  0  0  0  0  0  0  0
   -2.2777    1.2775    0.2610 O   0  0  0  0  0  0  0  0  0  0  0  0
   -1.5244   -1.8188    0.6412 H   0  0  0  0  0  0  0  0  0  0  0  0
   -1.0181   -0.5966    1.6884 H   0  0  0  0  0  0  0  0  0  0  0  0
   -0.3414   -0.8873   -1.1973 H   0  0  0  0  0  0  0  0  0  0  0  0
    0.7040    1.3947   -0.9208 H   0  0  0  0  0  0  0  0  0  0  0  0
    0.4658    1.2795    0.8591 H   0  0  0  0  0  0  0  0  0  0  0  0
    2.1417   -0.6602   -0.8716 H   0  0  0  0  0  0  0  0  0  0  0  0
    1.9366   -0.7493    0.9267 H   0  0  0  0  0  0  0  0  0  0  0  0
    2.7814    0.6571    0.1814 H   0  0  0  0  0  0  0  0  0  0  0  0
   -2.3283    0.3975   -1.5262 H   0  0  0  0  0  0  0  0  0  0  0  0
  1  2  1  0
  2  3  1  0
  3  4  1  0
  2  5  1  0
  5  6  2  0
  1  7  1  0
  1  8  1  0
  2  9  1  6
  3 10  1  0
  3 11  1  0
  4 12  1  0
  4 13  1  0
  4 14  1  0
  5 15  1  0
M  END
>  <Pepforge_TemplateRole>  (1) 
explicit_attachment_fragment

>  <Pepforge_CurationStatus>  (1) 
explicit_residue_graph

>  <Pepforge_Source>  (1) 
explicit_residue_fragment

>  <Pepforge_Notice>  (1) 
Attachment fragment for connected peptide construction; not a free-reagent or experimental-structure claim.

$$$$
