Dap
     RDKit          3D

 14 13  0  0  0  0  0  0  0  0999 V2000
   -0.0083   -1.5895   -0.3759 N   0  0  0  0  0  0  0  0  0  0  0  0
   -0.5239   -0.4421    0.3761 C   0  0  1  0  0  0  0  0  0  0  0  0
    0.6043    0.5291    0.8068 C   0  0  0  0  0  0  0  0  0  0  0  0
    1.3504    1.0931   -0.3199 N   0  0  0  0  0  0  0  0  0  0  0  0
   -1.5999    0.2583   -0.4116 C   0  0  0  0  0  0  0  0  0  0  0  0
   -2.2547    1.1531    0.0994 O   0  0  0  0  0  0  0  0  0  0  0  0
    0.7636   -2.0369    0.1703 H   0  0  0  0  0  0  0  0  0  0  0  0
    0.3881   -1.2716   -1.2897 H   0  0  0  0  0  0  0  0  0  0  0  0
   -0.9992   -0.8331    1.3026 H   0  0  0  0  0  0  0  0  0  0  0  0
    1.3113   -0.0041    1.4792 H   0  0  0  0  0  0  0  0  0  0  0  0
    0.1669    1.3623    1.3985 H   0  0  0  0  0  0  0  0  0  0  0  0
    1.9244    0.3427   -0.7664 H   0  0  0  0  0  0  0  0  0  0  0  0
    0.6879    1.4727   -1.0336 H   0  0  0  0  0  0  0  0  0  0  0  0
   -1.8109   -0.0340   -1.4357 H   0  0  0  0  0  0  0  0  0  0  0  0
  1  2  1  0
  2  3  1  0
  3  4  1  0
  2  5  1  0
  5  6  2  0
  1  7  1  0
  1  8  1  0
  2  9  1  1
  3 10  1  0
  3 11  1  0
  4 12  1  0
  4 13  1  0
  5 14  1  0
M  END
>  <Pepforge_TemplateRole>  (1) 
explicit_attachment_fragment

>  <Pepforge_CurationStatus>  (1) 
explicit_residue_graph

>  <Pepforge_Source>  (1) 
explicit_residue_fragment

>  <Pepforge_Notice>  (1) 
Attachment fragment for connected peptide construction; not a free-reagent or experimental-structure claim.

$$$$
