dCha
     RDKit          3D

 28 28  0  0  0  0  0  0  0  0999 V2000
   -3.4360   -0.8160   -0.9174 N   0  0  0  0  0  0  0  0  0  0  0  0
   -2.1260   -0.1614   -0.7400 C   0  0  2  0  0  0  0  0  0  0  0  0
   -1.4508   -0.7167    0.5226 C   0  0  0  0  0  0  0  0  0  0  0  0
    0.0638   -0.4540    0.6845 C   0  0  0  0  0  0  0  0  0  0  0  0
    0.4315    1.0318    0.7964 C   0  0  0  0  0  0  0  0  0  0  0  0
    1.9266    1.2138    1.0586 C   0  0  0  0  0  0  0  0  0  0  0  0
    2.7700    0.5250   -0.0109 C   0  0  0  0  0  0  0  0  0  0  0  0
    2.3985   -0.9474   -0.1620 C   0  0  0  0  0  0  0  0  0  0  0  0
    0.9016   -1.1309   -0.4126 C   0  0  0  0  0  0  0  0  0  0  0  0
   -2.3922    1.3346   -0.6268 C   0  0  0  0  0  0  0  0  0  0  0  0
   -2.2343    2.1188   -1.5602 O   0  0  0  0  0  0  0  0  0  0  0  0
   -3.8600   -0.4616   -1.7784 H   0  0  0  0  0  0  0  0  0  0  0  0
   -3.2928   -1.8135   -1.0759 H   0  0  0  0  0  0  0  0  0  0  0  0
   -1.5223   -0.3453   -1.6330 H   0  0  0  0  0  0  0  0  0  0  0  0
   -1.5871   -1.8072    0.5492 H   0  0  0  0  0  0  0  0  0  0  0  0
   -1.9627   -0.3295    1.4145 H   0  0  0  0  0  0  0  0  0  0  0  0
    0.3447   -0.9258    1.6379 H   0  0  0  0  0  0  0  0  0  0  0  0
    0.1817    1.5595   -0.1301 H   0  0  0  0  0  0  0  0  0  0  0  0
   -0.1386    1.5016    1.6061 H   0  0  0  0  0  0  0  0  0  0  0  0
    2.1783    0.8036    2.0443 H   0  0  0  0  0  0  0  0  0  0  0  0
    2.1682    2.2823    1.0860 H   0  0  0  0  0  0  0  0  0  0  0  0
    2.6276    1.0361   -0.9711 H   0  0  0  0  0  0  0  0  0  0  0  0
    3.8323    0.6135    0.2431 H   0  0  0  0  0  0  0  0  0  0  0  0
    2.9669   -1.3878   -0.9890 H   0  0  0  0  0  0  0  0  0  0  0  0
    2.6849   -1.4908    0.7469 H   0  0  0  0  0  0  0  0  0  0  0  0
    0.6721   -2.2021   -0.4535 H   0  0  0  0  0  0  0  0  0  0  0  0
    0.6575   -0.7119   -1.3955 H   0  0  0  0  0  0  0  0  0  0  0  0
   -2.8033    1.6809    0.3374 H   0  0  0  0  0  0  0  0  0  0  0  0
  1  2  1  0
  2  3  1  0
  3  4  1  0
  4  5  1  0
  5  6  1  0
  6  7  1  0
  7  8  1  0
  8  9  1  0
  2 10  1  0
 10 11  2  0
  9  4  1  0
  1 12  1  0
  1 13  1  0
  2 14  1  6
  3 15  1  0
  3 16  1  0
  4 17  1  0
  5 18  1  0
  5 19  1  0
  6 20  1  0
  6 21  1  0
  7 22  1  0
  7 23  1  0
  8 24  1  0
  8 25  1  0
  9 26  1  0
  9 27  1  0
 10 28  1  0
M  END
>  <Pepforge_Template_Token>  (1) 
dCha

>  <Pepforge_Template_Category>  (1) 
non_natural_aa

>  <Pepforge_Template_Mode>  (1) 
manifest_driven_template_checked_v120

>  <Pepforge_Version>  (1) 
1.2.0

>  <Pepforge_Curation_Status>  (1) 
rdkit_generated_template_checked_v120

$$$$
