dCit
     RDKit          3D

 24 23  0  0  0  0  0  0  0  0999 V2000
   -3.3604   -0.6095    1.2695 N   0  0  0  0  0  0  0  0  0  0  0  0
   -2.1017   -0.7606    0.5230 C   0  0  2  0  0  0  0  0  0  0  0  0
   -1.4553    0.6126    0.3108 C   0  0  0  0  0  0  0  0  0  0  0  0
   -0.0728    0.5616   -0.3531 C   0  0  0  0  0  0  0  0  0  0  0  0
    0.9982   -0.0847    0.5274 C   0  0  0  0  0  0  0  0  0  0  0  0
    2.2970   -0.0798   -0.1136 N   0  0  0  0  0  0  0  0  0  0  0  0
    3.0606    1.0485   -0.1544 C   0  0  0  0  0  0  0  0  0  0  0  0
    2.7882    2.1188    0.3653 O   0  0  0  0  0  0  0  0  0  0  0  0
    4.2057    0.8640   -0.8585 N   0  0  0  0  0  0  0  0  0  0  0  0
   -2.4012   -1.4430   -0.8074 C   0  0  0  0  0  0  0  0  0  0  0  0
   -2.4151   -2.6627   -0.9528 O   0  0  0  0  0  0  0  0  0  0  0  0
   -4.0304   -0.0511    0.7425 H   0  0  0  0  0  0  0  0  0  0  0  0
   -3.7850   -1.5323    1.3885 H   0  0  0  0  0  0  0  0  0  0  0  0
   -1.4411   -1.4132    1.1016 H   0  0  0  0  0  0  0  0  0  0  0  0
   -1.3631    1.1318    1.2738 H   0  0  0  0  0  0  0  0  0  0  0  0
   -2.1081    1.2340   -0.3170 H   0  0  0  0  0  0  0  0  0  0  0  0
   -0.1295    0.0371   -1.3145 H   0  0  0  0  0  0  0  0  0  0  0  0
    0.2268    1.5902   -0.5899 H   0  0  0  0  0  0  0  0  0  0  0  0
    1.0760    0.4453    1.4833 H   0  0  0  0  0  0  0  0  0  0  0  0
    0.7605   -1.1324    0.7320 H   0  0  0  0  0  0  0  0  0  0  0  0
    2.4527   -0.7325   -0.8684 H   0  0  0  0  0  0  0  0  0  0  0  0
    4.8292    1.6595   -0.7889 H   0  0  0  0  0  0  0  0  0  0  0  0
    4.6642   -0.0247   -0.7184 H   0  0  0  0  0  0  0  0  0  0  0  0
   -2.6957   -0.7769   -1.6371 H   0  0  0  0  0  0  0  0  0  0  0  0
  1  2  1  0
  2  3  1  0
  3  4  1  0
  4  5  1  0
  5  6  1  0
  6  7  1  0
  7  8  2  0
  7  9  1  0
  2 10  1  0
 10 11  2  0
  1 12  1  0
  1 13  1  0
  2 14  1  1
  3 15  1  0
  3 16  1  0
  4 17  1  0
  4 18  1  0
  5 19  1  0
  5 20  1  0
  6 21  1  0
  9 22  1  0
  9 23  1  0
 10 24  1  0
M  END
>  <Pepforge_Template_Token>  (1) 
dCit

>  <Pepforge_Template_Category>  (1) 
non_natural_aa

>  <Pepforge_Template_Mode>  (1) 
manifest_driven_template_checked_v120

>  <Pepforge_Version>  (1) 
1.2.0

>  <Pepforge_Curation_Status>  (1) 
rdkit_generated_template_checked_v120

$$$$
