dDab
     RDKit          3D

 17 16  0  0  0  0  0  0  0  0999 V2000
   -1.4011   -1.3396    0.4614 N   0  0  0  0  0  0  0  0  0  0  0  0
   -1.1870   -0.1655   -0.3976 C   0  0  2  0  0  0  0  0  0  0  0  0
    0.2600   -0.0601   -0.9052 C   0  0  0  0  0  0  0  0  0  0  0  0
    1.3310   -0.0410    0.1899 C   0  0  0  0  0  0  0  0  0  0  0  0
    2.6670    0.1234   -0.3819 N   0  0  0  0  0  0  0  0  0  0  0  0
   -1.6677    1.0973    0.3153 C   0  0  0  0  0  0  0  0  0  0  0  0
   -1.0069    2.1207    0.4598 O   0  0  0  0  0  0  0  0  0  0  0  0
   -0.8900   -1.2374    1.3391 H   0  0  0  0  0  0  0  0  0  0  0  0
   -2.3858   -1.4352    0.7064 H   0  0  0  0  0  0  0  0  0  0  0  0
   -1.8383   -0.2740   -1.2735 H   0  0  0  0  0  0  0  0  0  0  0  0
    0.3538    0.8474   -1.5167 H   0  0  0  0  0  0  0  0  0  0  0  0
    0.4562   -0.9066   -1.5773 H   0  0  0  0  0  0  0  0  0  0  0  0
    1.3186   -0.9784    0.7551 H   0  0  0  0  0  0  0  0  0  0  0  0
    1.1559    0.7702    0.9025 H   0  0  0  0  0  0  0  0  0  0  0  0
    2.7146    1.0160   -0.8732 H   0  0  0  0  0  0  0  0  0  0  0  0
    2.8297   -0.5957   -1.0855 H   0  0  0  0  0  0  0  0  0  0  0  0
   -2.7101    1.0585    0.6779 H   0  0  0  0  0  0  0  0  0  0  0  0
  1  2  1  0
  2  3  1  0
  3  4  1  0
  4  5  1  0
  2  6  1  0
  6  7  2  0
  1  8  1  0
  1  9  1  0
  2 10  1  6
  3 11  1  0
  3 12  1  0
  4 13  1  0
  4 14  1  0
  5 15  1  0
  5 16  1  0
  6 17  1  0
M  END
>  <Pepforge_Template_Token>  (1) 
dDab

>  <Pepforge_Template_Category>  (1) 
non_natural_aa

>  <Pepforge_Template_Mode>  (1) 
manifest_driven_template_checked_v120

>  <Pepforge_Version>  (1) 
1.2.0

>  <Pepforge_Curation_Status>  (1) 
rdkit_generated_template_checked_v120

$$$$
