dDap
     RDKit          3D

 14 13  0  0  0  0  0  0  0  0999 V2000
   -0.8080   -1.5566    0.5578 N   0  0  0  0  0  0  0  0  0  0  0  0
   -0.1290   -0.4791   -0.1633 C   0  0  2  0  0  0  0  0  0  0  0  0
    0.5744    0.4627    0.8375 C   0  0  0  0  0  0  0  0  0  0  0  0
    1.3852    1.4778    0.1645 N   0  0  0  0  0  0  0  0  0  0  0  0
   -1.1278    0.2717   -1.0042 C   0  0  0  0  0  0  0  0  0  0  0  0
   -2.0956    0.8109   -0.4902 O   0  0  0  0  0  0  0  0  0  0  0  0
   -0.0869   -2.1208    1.0640 H   0  0  0  0  0  0  0  0  0  0  0  0
   -1.2359   -2.2043   -0.1441 H   0  0  0  0  0  0  0  0  0  0  0  0
    0.6373   -0.9242   -0.8380 H   0  0  0  0  0  0  0  0  0  0  0  0
    1.2404   -0.1340    1.4979 H   0  0  0  0  0  0  0  0  0  0  0  0
   -0.1763    0.9622    1.4887 H   0  0  0  0  0  0  0  0  0  0  0  0
    2.0515    1.0055   -0.4889 H   0  0  0  0  0  0  0  0  0  0  0  0
    0.7622    2.0970   -0.4025 H   0  0  0  0  0  0  0  0  0  0  0  0
   -0.9915    0.3313   -2.0791 H   0  0  0  0  0  0  0  0  0  0  0  0
  1  2  1  0
  2  3  1  0
  3  4  1  0
  2  5  1  0
  5  6  2  0
  1  7  1  0
  1  8  1  0
  2  9  1  6
  3 10  1  0
  3 11  1  0
  4 12  1  0
  4 13  1  0
  5 14  1  0
M  END
>  <Pepforge_TemplateRole>  (1) 
explicit_attachment_fragment

>  <Pepforge_CurationStatus>  (1) 
explicit_residue_graph

>  <Pepforge_Source>  (1) 
explicit_residue_fragment

>  <Pepforge_Notice>  (1) 
Attachment fragment for connected peptide construction; not a free-reagent or experimental-structure claim.

$$$$
