Dde
     RDKit          3D

 21 20  0  0  0  0  0  0  0  0999 V2000
    3.1465   -0.0347   -0.5947 N   0  0  0  0  0  0  0  0  0  0  0  0
    2.5178    0.7362    0.4836 C   0  0  0  0  0  0  0  0  0  0  0  0
    1.2986   -0.0087    1.0164 C   0  0  0  0  0  0  0  0  0  0  0  0
    1.3154   -0.5832    2.1023 O   0  0  0  0  0  0  0  0  0  0  0  0
    0.0981   -0.0442    0.1268 C   0  0  0  0  0  0  0  0  0  0  0  0
   -1.1729   -0.1276    0.5600 C   0  0  0  0  0  0  0  0  0  0  0  0
   -1.6149   -0.1207    1.9981 C   0  0  0  0  0  0  0  0  0  0  0  0
   -2.3025   -0.2104   -0.4352 C   0  0  0  0  0  0  0  0  0  0  0  0
   -3.4691   -0.2205   -0.0407 O   0  0  0  0  0  0  0  0  0  0  0  0
   -2.0030   -0.2810   -1.9127 C   0  0  0  0  0  0  0  0  0  0  0  0
    3.9952    0.4490   -0.8905 H   0  0  0  0  0  0  0  0  0  0  0  0
    3.4679   -0.9256   -0.2073 H   0  0  0  0  0  0  0  0  0  0  0  0
    3.2259    0.8906    1.3044 H   0  0  0  0  0  0  0  0  0  0  0  0
    2.2063    1.7207    0.1200 H   0  0  0  0  0  0  0  0  0  0  0  0
    0.3566    0.0014   -0.9256 H   0  0  0  0  0  0  0  0  0  0  0  0
   -1.8902   -1.1320    2.3139 H   0  0  0  0  0  0  0  0  0  0  0  0
   -0.8509    0.2601    2.6800 H   0  0  0  0  0  0  0  0  0  0  0  0
   -2.4830    0.5332    2.1375 H   0  0  0  0  0  0  0  0  0  0  0  0
   -2.9405   -0.4043   -2.4641 H   0  0  0  0  0  0  0  0  0  0  0  0
   -1.5312    0.6465   -2.2470 H   0  0  0  0  0  0  0  0  0  0  0  0
   -1.3701   -1.1448   -2.1318 H   0  0  0  0  0  0  0  0  0  0  0  0
  1  2  1  0
  2  3  1  0
  3  4  2  0
  3  5  1  0
  5  6  2  3
  6  7  1  0
  6  8  1  0
  8  9  2  0
  8 10  1  0
  1 11  1  0
  1 12  1  0
  2 13  1  0
  2 14  1  0
  5 15  1  0
  7 16  1  0
  7 17  1  0
  7 18  1  0
 10 19  1  0
 10 20  1  0
 10 21  1  0
M  END
>  <Pepforge_Template_Token>  (1) 
Dde

>  <Pepforge_Template_Category>  (1) 
chemical

>  <Pepforge_Template_Mode>  (1) 
manifest_driven_template_checked_v120

>  <Pepforge_Version>  (1) 
1.2.0

>  <Pepforge_Curation_Status>  (1) 
rdkit_generated_template_checked_v120

$$$$
