dHyp
     RDKit          3D

 17 17  0  0  0  0  0  0  0  0999 V2000
    0.0088    1.4558   -0.4456 N   0  0  0  0  0  0  0  0  0  0  0  0
   -0.9600    0.8689    0.4951 C   0  0  0  0  0  0  0  0  0  0  0  0
   -0.9960   -0.6363    0.2034 C   0  0  1  0  0  0  0  0  0  0  0  0
   -2.2927   -1.0663   -0.1876 O   0  0  0  0  0  0  0  0  0  0  0  0
    0.0016   -0.8355   -0.9311 C   0  0  0  0  0  0  0  0  0  0  0  0
    0.9219    0.3689   -0.8276 C   0  0  2  0  0  0  0  0  0  0  0  0
    2.0212    0.2009    0.2159 C   0  0  0  0  0  0  0  0  0  0  0  0
    2.0894   -0.7263    1.0177 O   0  0  0  0  0  0  0  0  0  0  0  0
    0.4848    2.2527   -0.0288 H   0  0  0  0  0  0  0  0  0  0  0  0
   -0.6144    1.0370    1.5218 H   0  0  0  0  0  0  0  0  0  0  0  0
   -1.9383    1.3456    0.3810 H   0  0  0  0  0  0  0  0  0  0  0  0
   -0.6989   -1.2003    1.0948 H   0  0  0  0  0  0  0  0  0  0  0  0
   -2.2269   -2.0093   -0.4160 H   0  0  0  0  0  0  0  0  0  0  0  0
    0.5262   -1.7918   -0.8335 H   0  0  0  0  0  0  0  0  0  0  0  0
   -0.5148   -0.8436   -1.8996 H   0  0  0  0  0  0  0  0  0  0  0  0
    1.4074    0.5773   -1.7861 H   0  0  0  0  0  0  0  0  0  0  0  0
    2.7808    1.0022    0.2227 H   0  0  0  0  0  0  0  0  0  0  0  0
  1  2  1  0
  2  3  1  0
  3  4  1  0
  3  5  1  0
  5  6  1  0
  6  7  1  0
  7  8  2  0
  6  1  1  0
  1  9  1  0
  2 10  1  0
  2 11  1  0
  3 12  1  1
  4 13  1  0
  5 14  1  0
  5 15  1  0
  6 16  1  6
  7 17  1  0
M  END
>  <Pepforge_Template_Token>  (1) 
dHyp

>  <Pepforge_Template_Category>  (1) 
non_natural_aa

>  <Pepforge_Template_Mode>  (1) 
manifest_driven_template_checked_v120

>  <Pepforge_Version>  (1) 
1.2.0

>  <Pepforge_Curation_Status>  (1) 
rdkit_generated_template_checked_v120

$$$$
