dNal
     RDKit          3D

 28 29  0  0  0  0  0  0  0  0999 V2000
   -3.2292    0.5081    0.4556 N   0  0  0  0  0  0  0  0  0  0  0  0
   -2.3118   -0.5955    0.0968 C   0  0  2  0  0  0  0  0  0  0  0  0
   -1.4273   -0.2426   -1.1106 C   0  0  0  0  0  0  0  0  0  0  0  0
   -0.2075    0.5754   -0.7287 C   0  0  0  0  0  0  0  0  0  0  0  0
   -0.3214    1.9758   -0.7841 C   0  0  0  0  0  0  0  0  0  0  0  0
    0.7489    2.7930   -0.4405 C   0  0  0  0  0  0  0  0  0  0  0  0
    1.9497    2.2235   -0.0295 C   0  0  0  0  0  0  0  0  0  0  0  0
    2.0966    0.8313    0.0500 C   0  0  0  0  0  0  0  0  0  0  0  0
    3.3165    0.2813    0.4775 C   0  0  0  0  0  0  0  0  0  0  0  0
    3.4895   -1.0978    0.5717 C   0  0  0  0  0  0  0  0  0  0  0  0
    2.4426   -1.9456    0.2393 C   0  0  0  0  0  0  0  0  0  0  0  0
    1.2230   -1.4138   -0.1885 C   0  0  0  0  0  0  0  0  0  0  0  0
    1.0141   -0.0182   -0.2973 C   0  0  0  0  0  0  0  0  0  0  0  0
   -3.1238   -1.8442   -0.2393 C   0  0  0  0  0  0  0  0  0  0  0  0
   -4.3518   -1.8858   -0.2671 O   0  0  0  0  0  0  0  0  0  0  0  0
   -3.9113    0.6128   -0.3001 H   0  0  0  0  0  0  0  0  0  0  0  0
   -3.7995    0.1992    1.2465 H   0  0  0  0  0  0  0  0  0  0  0  0
   -1.7034   -0.8430    0.9740 H   0  0  0  0  0  0  0  0  0  0  0  0
   -1.1066   -1.1442   -1.6470 H   0  0  0  0  0  0  0  0  0  0  0  0
   -2.0143    0.3048   -1.8623 H   0  0  0  0  0  0  0  0  0  0  0  0
   -1.2599    2.4369   -1.0870 H   0  0  0  0  0  0  0  0  0  0  0  0
    0.6450    3.8737   -0.4865 H   0  0  0  0  0  0  0  0  0  0  0  0
    2.7743    2.8811    0.2371 H   0  0  0  0  0  0  0  0  0  0  0  0
    4.1481    0.9305    0.7440 H   0  0  0  0  0  0  0  0  0  0  0  0
    4.4401   -1.5056    0.9045 H   0  0  0  0  0  0  0  0  0  0  0  0
    2.5718   -3.0224    0.3106 H   0  0  0  0  0  0  0  0  0  0  0  0
    0.4356   -2.1181   -0.4377 H   0  0  0  0  0  0  0  0  0  0  0  0
   -2.5280   -2.7504   -0.4462 H   0  0  0  0  0  0  0  0  0  0  0  0
  1  2  1  0
  2  3  1  0
  3  4  1  0
  4  5  2  0
  5  6  1  0
  6  7  2  0
  7  8  1  0
  8  9  2  0
  9 10  1  0
 10 11  2  0
 11 12  1  0
 12 13  2  0
  2 14  1  0
 14 15  2  0
 13  4  1  0
 13  8  1  0
  1 16  1  0
  1 17  1  0
  2 18  1  1
  3 19  1  0
  3 20  1  0
  5 21  1  0
  6 22  1  0
  7 23  1  0
  9 24  1  0
 10 25  1  0
 11 26  1  0
 12 27  1  0
 14 28  1  0
M  END
>  <Pepforge_Template_Token>  (1) 
dNal

>  <Pepforge_Template_Category>  (1) 
non_natural_aa

>  <Pepforge_Template_Mode>  (1) 
manifest_driven_template_checked_v120

>  <Pepforge_Version>  (1) 
1.2.0

>  <Pepforge_Curation_Status>  (1) 
rdkit_generated_template_checked_v120

$$$$
