dNle
     RDKit          3D

 21 20  0  0  0  0  0  0  0  0999 V2000
   -1.6411    1.1031   -0.8800 N   0  0  0  0  0  0  0  0  0  0  0  0
   -1.5193    0.2432    0.3092 C   0  0  2  0  0  0  0  0  0  0  0  0
   -0.5922   -0.9505    0.0491 C   0  0  0  0  0  0  0  0  0  0  0  0
    0.8417   -0.5901   -0.3584 C   0  0  0  0  0  0  0  0  0  0  0  0
    1.5981    0.1944    0.7142 C   0  0  0  0  0  0  0  0  0  0  0  0
    3.0481    0.4228    0.3150 C   0  0  0  0  0  0  0  0  0  0  0  0
   -2.8991   -0.2741    0.7178 C   0  0  0  0  0  0  0  0  0  0  0  0
   -3.9497    0.0491    0.1676 O   0  0  0  0  0  0  0  0  0  0  0  0
   -2.3608    1.8054   -0.6861 H   0  0  0  0  0  0  0  0  0  0  0  0
   -2.0509    0.5507   -1.6369 H   0  0  0  0  0  0  0  0  0  0  0  0
   -1.1499    0.8429    1.1472 H   0  0  0  0  0  0  0  0  0  0  0  0
   -0.5558   -1.5808    0.9477 H   0  0  0  0  0  0  0  0  0  0  0  0
   -1.0247   -1.5841   -0.7374 H   0  0  0  0  0  0  0  0  0  0  0  0
    1.3797   -1.5243   -0.5639 H   0  0  0  0  0  0  0  0  0  0  0  0
    0.8361   -0.0246   -1.2977 H   0  0  0  0  0  0  0  0  0  0  0  0
    1.1240    1.1677    0.8799 H   0  0  0  0  0  0  0  0  0  0  0  0
    1.5688   -0.3501    1.6650 H   0  0  0  0  0  0  0  0  0  0  0  0
    3.5720   -0.5285    0.1772 H   0  0  0  0  0  0  0  0  0  0  0  0
    3.5706    0.9882    1.0928 H   0  0  0  0  0  0  0  0  0  0  0  0
    3.1128    0.9898   -0.6192 H   0  0  0  0  0  0  0  0  0  0  0  0
   -2.9084   -0.9502    1.5905 H   0  0  0  0  0  0  0  0  0  0  0  0
  1  2  1  0
  2  3  1  0
  3  4  1  0
  4  5  1  0
  5  6  1  0
  2  7  1  0
  7  8  2  0
  1  9  1  0
  1 10  1  0
  2 11  1  1
  3 12  1  0
  3 13  1  0
  4 14  1  0
  4 15  1  0
  5 16  1  0
  5 17  1  0
  6 18  1  0
  6 19  1  0
  6 20  1  0
  7 21  1  0
M  END
>  <Pepforge_Template_Token>  (1) 
dNle

>  <Pepforge_Template_Category>  (1) 
non_natural_aa

>  <Pepforge_Template_Mode>  (1) 
manifest_driven_template_checked_v120

>  <Pepforge_Version>  (1) 
1.2.0

>  <Pepforge_Curation_Status>  (1) 
rdkit_generated_template_checked_v120

$$$$
