dNva
     RDKit          3D

 18 17  0  0  0  0  0  0  0  0999 V2000
    0.7356    1.4614    0.3224 N   0  0  0  0  0  0  0  0  0  0  0  0
    0.9891    0.2170   -0.4077 C   0  0  2  0  0  0  0  0  0  0  0  0
    0.0747   -0.9129    0.1147 C   0  0  0  0  0  0  0  0  0  0  0  0
   -1.3903   -0.7801   -0.3392 C   0  0  0  0  0  0  0  0  0  0  0  0
   -2.1474    0.3392    0.3746 C   0  0  0  0  0  0  0  0  0  0  0  0
    2.4408   -0.1778   -0.2811 C   0  0  0  0  0  0  0  0  0  0  0  0
    2.8909   -1.0955   -0.9489 O   0  0  0  0  0  0  0  0  0  0  0  0
    1.3240    2.2210   -0.0919 H   0  0  0  0  0  0  0  0  0  0  0  0
    1.0254    1.3469    1.3217 H   0  0  0  0  0  0  0  0  0  0  0  0
    0.7773    0.3884   -1.4867 H   0  0  0  0  0  0  0  0  0  0  0  0
    0.1289   -0.9730    1.2242 H   0  0  0  0  0  0  0  0  0  0  0  0
    0.4449   -1.8857   -0.2783 H   0  0  0  0  0  0  0  0  0  0  0  0
   -1.4404   -0.6227   -1.4385 H   0  0  0  0  0  0  0  0  0  0  0  0
   -1.9086   -1.7385   -0.1178 H   0  0  0  0  0  0  0  0  0  0  0  0
   -1.8109    1.3326    0.0144 H   0  0  0  0  0  0  0  0  0  0  0  0
   -2.0049    0.2703    1.4740 H   0  0  0  0  0  0  0  0  0  0  0  0
   -3.2319    0.2485    0.1539 H   0  0  0  0  0  0  0  0  0  0  0  0
    3.1028    0.3609    0.3900 H   0  0  0  0  0  0  0  0  0  0  0  0
  1  2  1  0
  2  3  1  0
  3  4  1  0
  4  5  1  0
  2  6  1  0
  6  7  2  0
  1  8  1  0
  1  9  1  0
  2 10  1  6
  3 11  1  0
  3 12  1  0
  4 13  1  0
  4 14  1  0
  5 15  1  0
  5 16  1  0
  5 17  1  0
  6 18  1  0
M  END
>  <Pepforge_TemplateRole>  (1) 
explicit_attachment_fragment

>  <Pepforge_CurationStatus>  (1) 
explicit_residue_graph

>  <Pepforge_Source>  (1) 
explicit_residue_fragment

>  <Pepforge_Notice>  (1) 
Attachment fragment for connected peptide construction; not a free-reagent or experimental-structure claim.

$$$$
