dOrn
     RDKit          3D

 20 19  0  0  0  0  0  0  0  0999 V2000
   -2.1569   -0.9011    0.9007 N   0  0  0  0  0  0  0  0  0  0  0  0
   -1.6000    0.0848   -0.0369 C   0  0  2  0  0  0  0  0  0  0  0  0
   -0.1301    0.3806    0.2837 C   0  0  0  0  0  0  0  0  0  0  0  0
    0.7834   -0.8323    0.0683 C   0  0  0  0  0  0  0  0  0  0  0  0
    2.2485   -0.5618    0.4151 C   0  0  0  0  0  0  0  0  0  0  0  0
    2.8428    0.4494   -0.4521 N   0  0  0  0  0  0  0  0  0  0  0  0
   -2.4219    1.3731    0.0337 C   0  0  0  0  0  0  0  0  0  0  0  0
   -3.5988    1.4187    0.3893 O   0  0  0  0  0  0  0  0  0  0  0  0
   -3.1777   -0.8037    0.8928 H   0  0  0  0  0  0  0  0  0  0  0  0
   -1.9607   -1.8423    0.5654 H   0  0  0  0  0  0  0  0  0  0  0  0
   -1.6934   -0.2834   -1.0652 H   0  0  0  0  0  0  0  0  0  0  0  0
   -0.0364    0.7347    1.3190 H   0  0  0  0  0  0  0  0  0  0  0  0
    0.2070    1.2091   -0.3516 H   0  0  0  0  0  0  0  0  0  0  0  0
    0.7080   -1.1661   -0.9744 H   0  0  0  0  0  0  0  0  0  0  0  0
    0.4427   -1.6681    0.6908 H   0  0  0  0  0  0  0  0  0  0  0  0
    2.3422   -0.2508    1.4615 H   0  0  0  0  0  0  0  0  0  0  0  0
    2.8139   -1.4933    0.3009 H   0  0  0  0  0  0  0  0  0  0  0  0
    2.4683    1.3673   -0.2168 H   0  0  0  0  0  0  0  0  0  0  0  0
    3.8429    0.5063   -0.2576 H   0  0  0  0  0  0  0  0  0  0  0  0
   -1.9237    2.2791   -0.3520 H   0  0  0  0  0  0  0  0  0  0  0  0
  1  2  1  0
  2  3  1  0
  3  4  1  0
  4  5  1  0
  5  6  1  0
  2  7  1  0
  7  8  2  0
  1  9  1  0
  1 10  1  0
  2 11  1  6
  3 12  1  0
  3 13  1  0
  4 14  1  0
  4 15  1  0
  5 16  1  0
  5 17  1  0
  6 18  1  0
  6 19  1  0
  7 20  1  0
M  END
>  <Pepforge_Template_Token>  (1) 
dOrn

>  <Pepforge_Template_Category>  (1) 
non_natural_aa

>  <Pepforge_Template_Mode>  (1) 
manifest_driven_template_checked_v120

>  <Pepforge_Version>  (1) 
1.2.0

>  <Pepforge_Curation_Status>  (1) 
rdkit_generated_template_checked_v120

$$$$
