DOTA
     RDKit          3D

 58 58  0  0  0  0  0  0  0  0999 V2000
   -4.0532   -2.9709   -1.5965 N   0  0  0  0  0  0  0  0  0  0  0  0
   -3.3192   -1.7238   -1.3296 C   0  0  0  0  0  0  0  0  0  0  0  0
   -2.9121   -1.5887    0.1529 C   0  0  0  0  0  0  0  0  0  0  0  0
   -1.8463   -0.5894    0.3148 N   0  0  0  0  0  0  0  0  0  0  0  0
   -2.3773    0.7745    0.5268 C   0  0  0  0  0  0  0  0  0  0  0  0
   -1.5436    1.8903   -0.1756 C   0  0  0  0  0  0  0  0  0  0  0  0
   -0.2361    2.2069    0.4240 N   0  0  0  0  0  0  0  0  0  0  0  0
    0.7033    2.8284   -0.5357 C   0  0  0  0  0  0  0  0  0  0  0  0
    2.1918    2.3903   -0.3271 C   0  0  0  0  0  0  0  0  0  0  0  0
    2.5734    1.0360   -0.8396 N   0  0  0  0  0  0  0  0  0  0  0  0
    1.6135    0.0353   -0.3337 C   0  0  0  0  0  0  0  0  0  0  0  0
    1.7971   -1.4615   -0.6530 C   0  0  0  0  0  0  0  0  0  0  0  0
    0.5533   -2.2330   -0.4331 N   0  0  0  0  0  0  0  0  0  0  0  0
    0.0487   -2.2024    0.9607 C   0  0  0  0  0  0  0  0  0  0  0  0
   -0.8852   -1.0021    1.3545 C   0  0  0  0  0  0  0  0  0  0  0  0
    0.6870   -3.6091   -0.9487 C   0  0  0  0  0  0  0  0  0  0  0  0
   -0.6733   -4.1314   -1.3997 C   0  0  0  0  0  0  0  0  0  0  0  0
   -1.5063   -4.6937   -0.7018 O   0  0  0  0  0  0  0  0  0  0  0  0
   -0.9396   -3.8475   -2.6935 O   0  0  0  0  0  0  0  0  0  0  0  0
    3.9613    0.6981   -0.4508 C   0  0  0  0  0  0  0  0  0  0  0  0
    5.0076    1.5895   -1.1150 C   0  0  0  0  0  0  0  0  0  0  0  0
    4.8846    2.3499   -2.0603 O   0  0  0  0  0  0  0  0  0  0  0  0
    6.2232    1.4397   -0.5380 O   0  0  0  0  0  0  0  0  0  0  0  0
   -0.3044    2.8845    1.7285 C   0  0  0  0  0  0  0  0  0  0  0  0
   -0.9988    4.2362    1.6926 C   0  0  0  0  0  0  0  0  0  0  0  0
   -0.5108    5.3002    1.3462 O   0  0  0  0  0  0  0  0  0  0  0  0
   -2.2931    4.1750    2.0732 O   0  0  0  0  0  0  0  0  0  0  0  0
   -4.9543   -2.9259   -1.1198 H   0  0  0  0  0  0  0  0  0  0  0  0
   -3.5555   -3.7395   -1.1331 H   0  0  0  0  0  0  0  0  0  0  0  0
   -3.9343   -0.8704   -1.6356 H   0  0  0  0  0  0  0  0  0  0  0  0
   -2.4283   -1.7170   -1.9662 H   0  0  0  0  0  0  0  0  0  0  0  0
   -2.5712   -2.5711    0.4949 H   0  0  0  0  0  0  0  0  0  0  0  0
   -3.7855   -1.3564    0.7760 H   0  0  0  0  0  0  0  0  0  0  0  0
   -3.3752    0.8429    0.0732 H   0  0  0  0  0  0  0  0  0  0  0  0
   -2.5272    0.9874    1.5916 H   0  0  0  0  0  0  0  0  0  0  0  0
   -1.4028    1.5494   -1.2105 H   0  0  0  0  0  0  0  0  0  0  0  0
   -2.1550    2.7973   -0.2548 H   0  0  0  0  0  0  0  0  0  0  0  0
    0.4408    2.5726   -1.5706 H   0  0  0  0  0  0  0  0  0  0  0  0
    0.6412    3.9211   -0.4871 H   0  0  0  0  0  0  0  0  0  0  0  0
    2.4464    2.4761    0.7371 H   0  0  0  0  0  0  0  0  0  0  0  0
    2.7995    3.1365   -0.8509 H   0  0  0  0  0  0  0  0  0  0  0  0
    1.5672    0.1384    0.7544 H   0  0  0  0  0  0  0  0  0  0  0  0
    0.6511    0.2786   -0.7852 H   0  0  0  0  0  0  0  0  0  0  0  0
    2.6191   -1.8832   -0.0621 H   0  0  0  0  0  0  0  0  0  0  0  0
    2.0769   -1.5385   -1.7113 H   0  0  0  0  0  0  0  0  0  0  0  0
   -0.5339   -3.1108    1.1558 H   0  0  0  0  0  0  0  0  0  0  0  0
    0.8859   -2.2527    1.6693 H   0  0  0  0  0  0  0  0  0  0  0  0
   -1.4207   -1.2649    2.2774 H   0  0  0  0  0  0  0  0  0  0  0  0
   -0.2506   -0.1606    1.6349 H   0  0  0  0  0  0  0  0  0  0  0  0
    1.1197   -4.2944   -0.2104 H   0  0  0  0  0  0  0  0  0  0  0  0
    1.3432   -3.6520   -1.8276 H   0  0  0  0  0  0  0  0  0  0  0  0
   -1.9023   -4.0073   -2.7998 H   0  0  0  0  0  0  0  0  0  0  0  0
    4.2054   -0.3187   -0.7773 H   0  0  0  0  0  0  0  0  0  0  0  0
    4.0816    0.7577    0.6372 H   0  0  0  0  0  0  0  0  0  0  0  0
    6.7935    2.0386   -1.0650 H   0  0  0  0  0  0  0  0  0  0  0  0
    0.6980    3.0381    2.1447 H   0  0  0  0  0  0  0  0  0  0  0  0
   -0.8111    2.2490    2.4638 H   0  0  0  0  0  0  0  0  0  0  0  0
   -2.6074    5.0981    1.9732 H   0  0  0  0  0  0  0  0  0  0  0  0
  1  2  1  0
  2  3  1  0
  3  4  1  0
  4  5  1  0
  5  6  1  0
  6  7  1  0
  7  8  1  0
  8  9  1  0
  9 10  1  0
 10 11  1  0
 11 12  1  0
 12 13  1  0
 13 14  1  0
 14 15  1  0
 13 16  1  0
 16 17  1  0
 17 18  2  0
 17 19  1  0
 10 20  1  0
 20 21  1  0
 21 22  2  0
 21 23  1  0
  7 24  1  0
 24 25  1  0
 25 26  2  0
 25 27  1  0
 15  4  1  0
  1 28  1  0
  1 29  1  0
  2 30  1  0
  2 31  1  0
  3 32  1  0
  3 33  1  0
  5 34  1  0
  5 35  1  0
  6 36  1  0
  6 37  1  0
  8 38  1  0
  8 39  1  0
  9 40  1  0
  9 41  1  0
 11 42  1  0
 11 43  1  0
 12 44  1  0
 12 45  1  0
 14 46  1  0
 14 47  1  0
 15 48  1  0
 15 49  1  0
 16 50  1  0
 16 51  1  0
 19 52  1  0
 20 53  1  0
 20 54  1  0
 23 55  1  0
 24 56  1  0
 24 57  1  0
 27 58  1  0
M  END
>  <Pepforge_Template_Token>  (1) 
DOTA

>  <Pepforge_Template_Category>  (1) 
label

>  <Pepforge_Template_Mode>  (1) 
manifest_driven_template_checked_v120

>  <Pepforge_Version>  (1) 
1.2.0

>  <Pepforge_Curation_Status>  (1) 
rdkit_generated_template_checked_v120

$$$$
