FAM
     RDKit          3D

 39 43  0  0  0  0  0  0  0  0999 V2000
    1.1806   -0.1410   -0.0397 C   0  0  0  0  0  0  0  0  0  0  0  0
   -0.1177    0.1782   -0.7184 C   0  0  0  0  0  0  0  0  0  0  0  0
   -0.7907    1.4005   -0.1241 C   0  0  0  0  0  0  0  0  0  0  0  0
   -0.2985    2.7057   -0.3162 C   0  0  0  0  0  0  0  0  0  0  0  0
   -0.9155    3.7995    0.2965 C   0  0  0  0  0  0  0  0  0  0  0  0
   -2.0231    3.5920    1.1098 C   0  0  0  0  0  0  0  0  0  0  0  0
   -2.6525    4.6287    1.7318 O   0  0  0  0  0  0  0  0  0  0  0  0
   -2.5260    2.3138    1.3128 C   0  0  0  0  0  0  0  0  0  0  0  0
   -1.9163    1.2240    0.6890 C   0  0  0  0  0  0  0  0  0  0  0  0
   -2.4832   -0.0042    0.9314 O   0  0  0  0  0  0  0  0  0  0  0  0
   -2.1611   -1.0410    0.0881 C   0  0  0  0  0  0  0  0  0  0  0  0
   -3.0118   -2.1491    0.1316 C   0  0  0  0  0  0  0  0  0  0  0  0
   -2.7586   -3.2356   -0.6963 C   0  0  0  0  0  0  0  0  0  0  0  0
   -1.6708   -3.2320   -1.5593 C   0  0  0  0  0  0  0  0  0  0  0  0
   -0.8164   -2.1285   -1.5935 C   0  0  0  0  0  0  0  0  0  0  0  0
   -1.0503   -1.0162   -0.7640 C   0  0  0  0  0  0  0  0  0  0  0  0
   -3.5625   -4.3364   -0.6934 O   0  0  0  0  0  0  0  0  0  0  0  0
    0.3066    0.4933   -2.0737 O   0  0  0  0  0  0  0  0  0  0  0  0
    1.6566    0.3902   -2.2330 C   0  0  0  0  0  0  0  0  0  0  0  0
    2.2892    0.5981   -3.2480 O   0  0  0  0  0  0  0  0  0  0  0  0
    2.2109   -0.0122   -0.9503 C   0  0  0  0  0  0  0  0  0  0  0  0
    3.5383   -0.2414   -0.6284 C   0  0  0  0  0  0  0  0  0  0  0  0
    3.8155   -0.6186    0.6867 C   0  0  0  0  0  0  0  0  0  0  0  0
    2.7798   -0.7554    1.6321 C   0  0  0  0  0  0  0  0  0  0  0  0
    1.4496   -0.5157    1.2699 C   0  0  0  0  0  0  0  0  0  0  0  0
    5.2149   -0.8744    1.0833 C   0  0  0  0  0  0  0  0  0  0  0  0
    5.5147   -1.1981    2.2253 O   0  0  0  0  0  0  0  0  0  0  0  0
    0.5705    2.8837   -0.9465 H   0  0  0  0  0  0  0  0  0  0  0  0
   -0.5178    4.7961    0.1299 H   0  0  0  0  0  0  0  0  0  0  0  0
   -2.2133    5.4586    1.4822 H   0  0  0  0  0  0  0  0  0  0  0  0
   -3.3957    2.1679    1.9469 H   0  0  0  0  0  0  0  0  0  0  0  0
   -3.8620   -2.1420    0.8061 H   0  0  0  0  0  0  0  0  0  0  0  0
   -1.4866   -4.0875   -2.2040 H   0  0  0  0  0  0  0  0  0  0  0  0
    0.0314   -2.1489   -2.2749 H   0  0  0  0  0  0  0  0  0  0  0  0
   -4.2907   -4.1921   -0.0666 H   0  0  0  0  0  0  0  0  0  0  0  0
    4.3148   -0.1276   -1.3782 H   0  0  0  0  0  0  0  0  0  0  0  0
    3.0135   -1.0509    2.6548 H   0  0  0  0  0  0  0  0  0  0  0  0
    0.6531   -0.6231    2.0022 H   0  0  0  0  0  0  0  0  0  0  0  0
    5.9811   -0.7584    0.2982 H   0  0  0  0  0  0  0  0  0  0  0  0
  1  2  1  0
  2  3  1  0
  3  4  2  0
  4  5  1  0
  5  6  2  0
  6  7  1  0
  6  8  1  0
  8  9  2  0
  9 10  1  0
 10 11  1  0
 11 12  2  0
 12 13  1  0
 13 14  2  0
 14 15  1  0
 15 16  2  0
 13 17  1  0
  2 18  1  0
 18 19  1  0
 19 20  2  0
 19 21  1  0
 21 22  2  0
 22 23  1  0
 23 24  2  0
 24 25  1  0
 23 26  1  0
 26 27  2  0
 25  1  2  0
 21  1  1  0
 16  2  1  0
  9  3  1  0
 16 11  1  0
  4 28  1  0
  5 29  1  0
  7 30  1  0
  8 31  1  0
 12 32  1  0
 14 33  1  0
 15 34  1  0
 17 35  1  0
 22 36  1  0
 24 37  1  0
 25 38  1  0
 26 39  1  0
M  END
>  <Pepforge_TemplateRole>  (1) 
explicit_attachment_fragment

>  <Pepforge_CurationStatus>  (1) 
verified_database_structure_and_explicit_amide_rule

>  <Pepforge_Source>  (1) 
PubChem 5-carboxyfluorescein connectivity; explicit Pepforge 5-FAM convention

>  <Pepforge_Notice>  (1) 
Attachment fragment for connected peptide construction; not a claim that this SDF is the free labeling reagent.

$$$$
