FITC
     RDKit          3D

 41 45  0  0  0  0  0  0  0  0999 V2000
   -3.3118    3.0464    0.1640 C   0  0  0  0  0  0  0  0  0  0  0  0
   -4.2545    3.9663    0.5150 O   0  0  0  0  0  0  0  0  0  0  0  0
   -3.5273    1.7249    0.5320 C   0  0  0  0  0  0  0  0  0  0  0  0
   -2.5904    0.7498    0.1859 C   0  0  0  0  0  0  0  0  0  0  0  0
   -2.8829   -0.5352    0.5762 O   0  0  0  0  0  0  0  0  0  0  0  0
   -2.2050   -1.5633   -0.0342 C   0  0  0  0  0  0  0  0  0  0  0  0
   -1.0139   -1.3772   -0.7457 C   0  0  0  0  0  0  0  0  0  0  0  0
   -0.4052   -2.4975   -1.3430 C   0  0  0  0  0  0  0  0  0  0  0  0
   -0.9743   -3.7679   -1.2235 C   0  0  0  0  0  0  0  0  0  0  0  0
   -2.1503   -3.9245   -0.4993 C   0  0  0  0  0  0  0  0  0  0  0  0
   -2.7677   -2.8337    0.0983 C   0  0  0  0  0  0  0  0  0  0  0  0
   -2.7361   -5.1466   -0.3520 O   0  0  0  0  0  0  0  0  0  0  0  0
   -0.4008    0.0089   -0.7955 C   0  0  0  0  0  0  0  0  0  0  0  0
   -1.4251    1.0904   -0.5109 C   0  0  0  0  0  0  0  0  0  0  0  0
   -1.2272    2.4364   -0.8735 C   0  0  0  0  0  0  0  0  0  0  0  0
   -2.1706    3.4117   -0.5403 C   0  0  0  0  0  0  0  0  0  0  0  0
    0.8055    0.1263    0.0834 C   0  0  0  0  0  0  0  0  0  0  0  0
    0.9393    0.0180    1.4559 C   0  0  0  0  0  0  0  0  0  0  0  0
    2.2154    0.1778    2.0112 C   0  0  0  0  0  0  0  0  0  0  0  0
    3.3527    0.4434    1.2110 C   0  0  0  0  0  0  0  0  0  0  0  0
    3.1895    0.5475   -0.1693 C   0  0  0  0  0  0  0  0  0  0  0  0
    1.9135    0.3848   -0.6935 C   0  0  0  0  0  0  0  0  0  0  0  0
    1.5012    0.4488   -2.0886 C   0  0  0  0  0  0  0  0  0  0  0  0
    0.1546    0.2275   -2.1201 O   0  0  0  0  0  0  0  0  0  0  0  0
    2.2178    0.6593   -3.0453 O   0  0  0  0  0  0  0  0  0  0  0  0
    4.5750    0.5807    1.9084 N   0  0  0  0  0  0  0  0  0  0  0  0
    5.8690    0.8355    1.4963 C   0  0  0  0  0  0  0  0  0  0  0  0
    6.5313    1.0888   -0.0060 S   0  0  0  0  0  0  0  0  0  0  0  0
   -3.9950    4.8322    0.1592 H   0  0  0  0  0  0  0  0  0  0  0  0
   -4.4266    1.4528    1.0770 H   0  0  0  0  0  0  0  0  0  0  0  0
    0.5190   -2.3907   -1.9080 H   0  0  0  0  0  0  0  0  0  0  0  0
   -0.4861   -4.6149   -1.6960 H   0  0  0  0  0  0  0  0  0  0  0  0
   -3.6897   -2.9700    0.6562 H   0  0  0  0  0  0  0  0  0  0  0  0
   -2.2231   -5.8023   -0.8526 H   0  0  0  0  0  0  0  0  0  0  0  0
   -0.3355    2.7379   -1.4201 H   0  0  0  0  0  0  0  0  0  0  0  0
   -1.9952    4.4422   -0.8343 H   0  0  0  0  0  0  0  0  0  0  0  0
    0.0819   -0.1854    2.0923 H   0  0  0  0  0  0  0  0  0  0  0  0
    2.3110    0.0908    3.0924 H   0  0  0  0  0  0  0  0  0  0  0  0
    3.9966    0.7477   -0.8595 H   0  0  0  0  0  0  0  0  0  0  0  0
    4.4905    0.4709    2.9148 H   0  0  0  0  0  0  0  0  0  0  0  0
    6.5306    0.8615    2.3818 H   0  0  0  0  0  0  0  0  0  0  0  0
  1  2  1  0
  1  3  2  0
  3  4  1  0
  4  5  1  0
  5  6  1  0
  6  7  2  0
  7  8  1  0
  8  9  2  0
  9 10  1  0
 10 11  2  0
 10 12  1  0
  7 13  1  0
 13 14  1  0
 14 15  1  0
 15 16  2  0
 13 17  1  0
 17 18  2  0
 18 19  1  0
 19 20  2  0
 20 21  1  0
 21 22  2  0
 22 23  1  0
 23 24  1  0
 23 25  2  0
 20 26  1  0
 26 27  1  0
 27 28  2  0
 16  1  1  0
 22 17  1  0
 14  4  2  0
 11  6  1  0
 24 13  1  0
  2 29  1  0
  3 30  1  0
  8 31  1  0
  9 32  1  0
 11 33  1  0
 12 34  1  0
 15 35  1  0
 16 36  1  0
 18 37  1  0
 19 38  1  0
 21 39  1  0
 26 40  1  0
 27 41  1  0
M  END
>  <Pepforge_TemplateRole>  (1) 
explicit_attachment_fragment

>  <Pepforge_CurationStatus>  (1) 
verified_database_structure_and_explicit_thiourea_rule

>  <Pepforge_Source>  (1) 
PubChem CID 18730 (fluorescein 5-isothiocyanate)

>  <Pepforge_Notice>  (1) 
Attachment fragment for connected peptide construction; not a claim that this SDF is the free labeling reagent.

$$$$
