FITC
     RDKit          3D

 37 41  0  0  0  0  0  0  0  0999 V2000
    4.9808   -0.5832    1.2593 N   0  0  0  0  0  0  0  0  0  0  0  0
    3.6463   -0.5349    0.8420 C   0  0  0  0  0  0  0  0  0  0  0  0
    2.6247   -0.2953    1.7816 C   0  0  0  0  0  0  0  0  0  0  0  0
    1.2928   -0.1185    1.3853 C   0  0  0  0  0  0  0  0  0  0  0  0
    1.0016   -0.1434    0.0307 C   0  0  0  0  0  0  0  0  0  0  0  0
    2.0149   -0.3263   -0.8858 C   0  0  0  0  0  0  0  0  0  0  0  0
    3.3392   -0.5018   -0.5195 C   0  0  0  0  0  0  0  0  0  0  0  0
    1.4516   -0.2829   -2.2257 C   0  0  0  0  0  0  0  0  0  0  0  0
    2.0625   -0.4095   -3.2675 O   0  0  0  0  0  0  0  0  0  0  0  0
    0.1090   -0.0797   -2.0899 O   0  0  0  0  0  0  0  0  0  0  0  0
   -0.2963    0.0257   -0.6965 C   0  0  0  0  0  0  0  0  0  0  0  0
   -0.9079    1.3951   -0.4728 C   0  0  0  0  0  0  0  0  0  0  0  0
   -0.3509    2.5690   -1.0136 C   0  0  0  0  0  0  0  0  0  0  0  0
   -0.9126    3.8176   -0.7388 C   0  0  0  0  0  0  0  0  0  0  0  0
   -2.0323    3.9130    0.0832 C   0  0  0  0  0  0  0  0  0  0  0  0
   -2.5944    2.7589    0.6249 C   0  0  0  0  0  0  0  0  0  0  0  0
   -2.0393    1.5084    0.3415 C   0  0  0  0  0  0  0  0  0  0  0  0
   -2.6671    0.4287    0.9139 O   0  0  0  0  0  0  0  0  0  0  0  0
   -2.3829   -0.8208    0.4184 C   0  0  0  0  0  0  0  0  0  0  0  0
   -3.2727   -1.8368    0.7763 C   0  0  0  0  0  0  0  0  0  0  0  0
   -3.0739   -3.1361    0.3139 C   0  0  0  0  0  0  0  0  0  0  0  0
   -1.9833   -3.4207   -0.5034 C   0  0  0  0  0  0  0  0  0  0  0  0
   -1.0873   -2.4080   -0.8521 C   0  0  0  0  0  0  0  0  0  0  0  0
   -1.2752   -1.0914   -0.3912 C   0  0  0  0  0  0  0  0  0  0  0  0
    5.6072   -1.0448    0.6064 H   0  0  0  0  0  0  0  0  0  0  0  0
    5.1091   -0.9096    2.2123 H   0  0  0  0  0  0  0  0  0  0  0  0
    2.8668   -0.2426    2.8412 H   0  0  0  0  0  0  0  0  0  0  0  0
    0.5161    0.0502    2.1262 H   0  0  0  0  0  0  0  0  0  0  0  0
    4.1065   -0.6086   -1.2794 H   0  0  0  0  0  0  0  0  0  0  0  0
    0.5276    2.5225   -1.6542 H   0  0  0  0  0  0  0  0  0  0  0  0
   -0.4730    4.7159   -1.1658 H   0  0  0  0  0  0  0  0  0  0  0  0
   -2.4690    4.8846    0.2990 H   0  0  0  0  0  0  0  0  0  0  0  0
   -3.4716    2.8318    1.2624 H   0  0  0  0  0  0  0  0  0  0  0  0
   -4.1274   -1.6121    1.4091 H   0  0  0  0  0  0  0  0  0  0  0  0
   -3.7713   -3.9239    0.5868 H   0  0  0  0  0  0  0  0  0  0  0  0
   -1.8277   -4.4327   -0.8698 H   0  0  0  0  0  0  0  0  0  0  0  0
   -0.2407   -2.6576   -1.4884 H   0  0  0  0  0  0  0  0  0  0  0  0
  1  2  1  0
  2  3  2  0
  3  4  1  0
  4  5  2  0
  5  6  1  0
  6  7  2  0
  6  8  1  0
  8  9  2  0
  8 10  1  0
 10 11  1  0
 11 12  1  0
 12 13  2  0
 13 14  1  0
 14 15  2  0
 15 16  1  0
 16 17  2  0
 17 18  1  0
 18 19  1  0
 19 20  2  0
 20 21  1  0
 21 22  2  0
 22 23  1  0
 23 24  2  0
  7  2  1  0
 24 11  1  0
 11  5  1  0
 17 12  1  0
 24 19  1  0
  1 25  1  0
  1 26  1  0
  3 27  1  0
  4 28  1  0
  7 29  1  0
 13 30  1  0
 14 31  1  0
 15 32  1  0
 16 33  1  0
 20 34  1  0
 21 35  1  0
 22 36  1  0
 23 37  1  0
M  END
>  <Pepforge_Template_Token>  (1) 
FITC

>  <Pepforge_Template_Category>  (1) 
label

>  <Pepforge_Template_Mode>  (1) 
manifest_driven_template_checked_v120

>  <Pepforge_Version>  (1) 
1.2.0

>  <Pepforge_Curation_Status>  (1) 
rdkit_generated_template_checked_v120

$$$$
