Gal
     RDKit          3D

 17 17  0  0  0  0  0  0  0  0999 V2000
    3.5027    0.0283    0.6445 O   0  0  0  0  0  0  0  0  0  0  0  0
    2.5480   -0.7366    0.6945 C   0  0  0  0  0  0  0  0  0  0  0  0
    1.1856   -0.3126    0.3142 C   0  0  0  0  0  0  0  0  0  0  0  0
    0.1359   -1.2360    0.3938 C   0  0  0  0  0  0  0  0  0  0  0  0
   -1.1421   -0.8238    0.0327 C   0  0  0  0  0  0  0  0  0  0  0  0
   -2.2148   -1.6727    0.0858 O   0  0  0  0  0  0  0  0  0  0  0  0
   -1.3742    0.4832   -0.4002 C   0  0  0  0  0  0  0  0  0  0  0  0
   -2.6456    0.8512   -0.7469 O   0  0  0  0  0  0  0  0  0  0  0  0
   -0.3247    1.3953   -0.4765 C   0  0  0  0  0  0  0  0  0  0  0  0
   -0.5677    2.6698   -0.9017 O   0  0  0  0  0  0  0  0  0  0  0  0
    0.9627    1.0021   -0.1193 C   0  0  0  0  0  0  0  0  0  0  0  0
    2.6667   -1.7811    1.0281 H   0  0  0  0  0  0  0  0  0  0  0  0
    0.3183   -2.2511    0.7304 H   0  0  0  0  0  0  0  0  0  0  0  0
   -1.9168   -2.5431    0.4008 H   0  0  0  0  0  0  0  0  0  0  0  0
   -3.1887    0.0520   -0.6099 H   0  0  0  0  0  0  0  0  0  0  0  0
    0.2601    3.1755   -0.8982 H   0  0  0  0  0  0  0  0  0  0  0  0
    1.7945    1.6998   -0.1722 H   0  0  0  0  0  0  0  0  0  0  0  0
  1  2  2  0
  2  3  1  0
  3  4  2  0
  4  5  1  0
  5  6  1  0
  5  7  2  0
  7  8  1  0
  7  9  1  0
  9 10  1  0
  9 11  2  0
 11  3  1  0
  2 12  1  0
  4 13  1  0
  6 14  1  0
  8 15  1  0
 10 16  1  0
 11 17  1  0
M  END
>  <Pepforge_TemplateRole>  (1) 
explicit_attachment_fragment

>  <Pepforge_CurationStatus>  (1) 
buildable_only_as_explicit_N_terminal_or_sidechain_acyl

>  <Pepforge_Source>  (1) 
explicit_acyl_attachment_rule

>  <Pepforge_Notice>  (1) 
Attachment fragment for connected peptide construction; not a claim that this SDF is the free labeling reagent.

$$$$
