gAla
     RDKit          3D

 15 14  0  0  0  0  0  0  0  0999 V2000
   -2.3702    0.2275   -0.0982 N   0  0  0  0  0  0  0  0  0  0  0  0
   -0.9627    0.5908    0.0142 C   0  0  0  0  0  0  0  0  0  0  0  0
   -0.1350   -0.6424    0.3812 C   0  0  0  0  0  0  0  0  0  0  0  0
    1.3433   -0.3091    0.5456 C   0  0  0  0  0  0  0  0  0  0  0  0
    1.9784   -0.0150   -0.7868 C   0  0  0  0  0  0  0  0  0  0  0  0
    2.4228    1.0872   -1.0909 O   0  0  0  0  0  0  0  0  0  0  0  0
   -2.5011   -0.4224   -0.8724 H   0  0  0  0  0  0  0  0  0  0  0  0
   -2.9132    1.0582   -0.3342 H   0  0  0  0  0  0  0  0  0  0  0  0
   -0.8533    1.3594    0.7868 H   0  0  0  0  0  0  0  0  0  0  0  0
   -0.6249    1.0198   -0.9349 H   0  0  0  0  0  0  0  0  0  0  0  0
   -0.2605   -1.4182   -0.3850 H   0  0  0  0  0  0  0  0  0  0  0  0
   -0.5052   -1.0598    1.3261 H   0  0  0  0  0  0  0  0  0  0  0  0
    1.4863    0.5465    1.2140 H   0  0  0  0  0  0  0  0  0  0  0  0
    1.8759   -1.1634    0.9771 H   0  0  0  0  0  0  0  0  0  0  0  0
    2.0194   -0.8589   -1.4967 H   0  0  0  0  0  0  0  0  0  0  0  0
  1  2  1  0
  2  3  1  0
  3  4  1  0
  4  5  1  0
  5  6  2  0
  1  7  1  0
  1  8  1  0
  2  9  1  0
  2 10  1  0
  3 11  1  0
  3 12  1  0
  4 13  1  0
  4 14  1  0
  5 15  1  0
M  END
>  <Pepforge_Template_Token>  (1) 
gAla

>  <Pepforge_Template_Category>  (1) 
linker

>  <Pepforge_Template_Mode>  (1) 
manifest_driven_template_checked_v120

>  <Pepforge_Version>  (1) 
1.2.0

>  <Pepforge_Curation_Status>  (1) 
rdkit_generated_template_checked_v120

$$$$
