Hyp
     RDKit          3D

 17 17  0  0  0  0  0  0  0  0999 V2000
    0.3489    1.3479   -0.2596 N   0  0  0  0  0  0  0  0  0  0  0  0
   -1.0965    1.1169   -0.4145 C   0  0  0  0  0  0  0  0  0  0  0  0
   -1.2859   -0.4016   -0.5215 C   0  0  2  0  0  0  0  0  0  0  0  0
   -2.0545   -0.8700    0.5844 O   0  0  0  0  0  0  0  0  0  0  0  0
    0.1199   -0.9747   -0.4399 C   0  0  0  0  0  0  0  0  0  0  0  0
    0.8821    0.1004    0.3147 C   0  0  1  0  0  0  0  0  0  0  0  0
    2.3701    0.0146    0.0551 C   0  0  0  0  0  0  0  0  0  0  0  0
    3.1842   -0.3484    0.9009 O   0  0  0  0  0  0  0  0  0  0  0  0
    0.5072    2.1230    0.3861 H   0  0  0  0  0  0  0  0  0  0  0  0
   -1.6461    1.5332    0.4373 H   0  0  0  0  0  0  0  0  0  0  0  0
   -1.4383    1.6192   -1.3247 H   0  0  0  0  0  0  0  0  0  0  0  0
   -1.7953   -0.6902   -1.4463 H   0  0  0  0  0  0  0  0  0  0  0  0
   -2.1744   -1.8293    0.4726 H   0  0  0  0  0  0  0  0  0  0  0  0
    0.1630   -1.9372    0.0804 H   0  0  0  0  0  0  0  0  0  0  0  0
    0.5316   -1.1111   -1.4482 H   0  0  0  0  0  0  0  0  0  0  0  0
    0.6876    0.0556    1.3926 H   0  0  0  0  0  0  0  0  0  0  0  0
    2.6964    0.2516   -0.9728 H   0  0  0  0  0  0  0  0  0  0  0  0
  1  2  1  0
  2  3  1  0
  3  4  1  0
  3  5  1  0
  5  6  1  0
  6  7  1  0
  7  8  2  0
  6  1  1  0
  1  9  1  0
  2 10  1  0
  2 11  1  0
  3 12  1  6
  4 13  1  0
  5 14  1  0
  5 15  1  0
  6 16  1  1
  7 17  1  0
M  END
>  <Pepforge_Template_Token>  (1) 
Hyp

>  <Pepforge_Template_Category>  (1) 
non_natural_aa

>  <Pepforge_Template_Mode>  (1) 
manifest_driven_template_checked_v120

>  <Pepforge_Version>  (1) 
1.2.0

>  <Pepforge_Curation_Status>  (1) 
rdkit_generated_template_checked_v120

$$$$
