Lau
     RDKit          3D

 37 36  0  0  0  0  0  0  0  0999 V2000
    5.5167    1.1794   -0.6363 C   0  0  0  0  0  0  0  0  0  0  0  0
    5.2028    0.1559    0.4440 C   0  0  0  0  0  0  0  0  0  0  0  0
    3.7079    0.0306    0.7499 C   0  0  0  0  0  0  0  0  0  0  0  0
    2.8948   -0.5086   -0.4300 C   0  0  0  0  0  0  0  0  0  0  0  0
    1.4451   -0.8496   -0.0652 C   0  0  0  0  0  0  0  0  0  0  0  0
    0.6093    0.3783    0.3063 C   0  0  0  0  0  0  0  0  0  0  0  0
   -0.8407    0.0404    0.6736 C   0  0  0  0  0  0  0  0  0  0  0  0
   -1.6742   -0.4392   -0.5178 C   0  0  0  0  0  0  0  0  0  0  0  0
   -3.1226   -0.7804   -0.1496 C   0  0  0  0  0  0  0  0  0  0  0  0
   -3.9471    0.4387    0.2782 C   0  0  0  0  0  0  0  0  0  0  0  0
   -5.4133    0.0894    0.5244 C   0  0  0  0  0  0  0  0  0  0  0  0
   -6.2156   -0.1192   -0.7390 C   0  0  0  0  0  0  0  0  0  0  0  0
   -5.7903    0.0491   -1.8767 O   0  0  0  0  0  0  0  0  0  0  0  0
    5.0989    2.1588   -0.3832 H   0  0  0  0  0  0  0  0  0  0  0  0
    5.1175    0.8726   -1.6075 H   0  0  0  0  0  0  0  0  0  0  0  0
    6.6004    1.2910   -0.7441 H   0  0  0  0  0  0  0  0  0  0  0  0
    5.7221    0.4496    1.3641 H   0  0  0  0  0  0  0  0  0  0  0  0
    5.6070   -0.8199    0.1505 H   0  0  0  0  0  0  0  0  0  0  0  0
    3.3239    1.0095    1.0584 H   0  0  0  0  0  0  0  0  0  0  0  0
    3.5890   -0.6433    1.6071 H   0  0  0  0  0  0  0  0  0  0  0  0
    2.8968    0.2151   -1.2531 H   0  0  0  0  0  0  0  0  0  0  0  0
    3.3741   -1.4205   -0.8071 H   0  0  0  0  0  0  0  0  0  0  0  0
    0.9974   -1.3520   -0.9296 H   0  0  0  0  0  0  0  0  0  0  0  0
    1.4337   -1.5703    0.7612 H   0  0  0  0  0  0  0  0  0  0  0  0
    1.0603    0.8767    1.1718 H   0  0  0  0  0  0  0  0  0  0  0  0
    0.6217    1.1012   -0.5182 H   0  0  0  0  0  0  0  0  0  0  0  0
   -1.2929    0.9462    1.0929 H   0  0  0  0  0  0  0  0  0  0  0  0
   -0.8530   -0.7170    1.4665 H   0  0  0  0  0  0  0  0  0  0  0  0
   -1.2217   -1.3417   -0.9430 H   0  0  0  0  0  0  0  0  0  0  0  0
   -1.6657    0.3218   -1.3073 H   0  0  0  0  0  0  0  0  0  0  0  0
   -3.1305   -1.5305    0.6507 H   0  0  0  0  0  0  0  0  0  0  0  0
   -3.5893   -1.2504   -1.0232 H   0  0  0  0  0  0  0  0  0  0  0  0
   -3.5370    0.8425    1.2107 H   0  0  0  0  0  0  0  0  0  0  0  0
   -3.8668    1.2286   -0.4780 H   0  0  0  0  0  0  0  0  0  0  0  0
   -5.8960    0.9093    1.0680 H   0  0  0  0  0  0  0  0  0  0  0  0
   -5.4999   -0.8148    1.1362 H   0  0  0  0  0  0  0  0  0  0  0  0
   -7.2630   -0.4274   -0.5764 H   0  0  0  0  0  0  0  0  0  0  0  0
  1  2  1  0
  2  3  1  0
  3  4  1  0
  4  5  1  0
  5  6  1  0
  6  7  1  0
  7  8  1  0
  8  9  1  0
  9 10  1  0
 10 11  1  0
 11 12  1  0
 12 13  2  0
  1 14  1  0
  1 15  1  0
  1 16  1  0
  2 17  1  0
  2 18  1  0
  3 19  1  0
  3 20  1  0
  4 21  1  0
  4 22  1  0
  5 23  1  0
  5 24  1  0
  6 25  1  0
  6 26  1  0
  7 27  1  0
  7 28  1  0
  8 29  1  0
  8 30  1  0
  9 31  1  0
  9 32  1  0
 10 33  1  0
 10 34  1  0
 11 35  1  0
 11 36  1  0
 12 37  1  0
M  END
>  <Pepforge_TemplateRole>  (1) 
explicit_attachment_fragment

>  <Pepforge_CurationStatus>  (1) 
buildable_only_as_explicit_N_terminal_or_sidechain_acyl

>  <Pepforge_Source>  (1) 
explicit_acyl_attachment_rule

>  <Pepforge_Notice>  (1) 
Attachment fragment for connected peptide construction; not a claim that this SDF is the free labeling reagent.

$$$$
