Lau_N_terminal_acyl_cap_template_v422_hotfix
     RDKit          3D

 37 36  0  0  0  0  0  0  0  0999 V2000
    5.5835    0.8363   -0.7007 C   0  0  0  0  0  0  0  0  0  0  0  0
    5.2157    0.0363    0.5486 C   0  0  0  0  0  0  0  0  0  0  0  0
    3.7103    0.0726    0.8542 C   0  0  0  0  0  0  0  0  0  0  0  0
    2.8799   -0.7040   -0.1830 C   0  0  0  0  0  0  0  0  0  0  0  0
    1.4191   -0.9006    0.2536 C   0  0  0  0  0  0  0  0  0  0  0  0
    0.6130    0.4098    0.2237 C   0  0  0  0  0  0  0  0  0  0  0  0
   -0.8586    0.2067    0.6214 C   0  0  0  0  0  0  0  0  0  0  0  0
   -1.6979   -0.4044   -0.5146 C   0  0  0  0  0  0  0  0  0  0  0  0
   -3.1601   -0.6449   -0.1054 C   0  0  0  0  0  0  0  0  0  0  0  0
   -3.9701    0.6594   -0.0016 C   0  0  0  0  0  0  0  0  0  0  0  0
   -5.4499    0.3955    0.3104 C   0  0  0  0  0  0  0  0  0  0  0  0
   -6.1612   -0.2599   -0.8373 C   0  0  0  0  0  0  0  0  0  0  0  0
   -6.2967    0.3274   -1.8989 O   0  0  0  0  0  0  0  0  0  0  0  0
    5.2071    1.8782   -0.6200 H   0  0  0  0  0  0  0  0  0  0  0  0
    5.1622    0.3598   -1.6100 H   0  0  0  0  0  0  0  0  0  0  0  0
    6.6883    0.8671   -0.8068 H   0  0  0  0  0  0  0  0  0  0  0  0
    5.7603    0.4718    1.4143 H   0  0  0  0  0  0  0  0  0  0  0  0
    5.5578   -1.0150    0.4319 H   0  0  0  0  0  0  0  0  0  0  0  0
    3.3736    1.1300    0.9033 H   0  0  0  0  0  0  0  0  0  0  0  0
    3.5545   -0.3806    1.8576 H   0  0  0  0  0  0  0  0  0  0  0  0
    2.9031   -0.1804   -1.1628 H   0  0  0  0  0  0  0  0  0  0  0  0
    3.3313   -1.7102   -0.3264 H   0  0  0  0  0  0  0  0  0  0  0  0
    0.9594   -1.6329   -0.4421 H   0  0  0  0  0  0  0  0  0  0  0  0
    1.3878   -1.3424    1.2737 H   0  0  0  0  0  0  0  0  0  0  0  0
    1.0595    1.1235    0.9479 H   0  0  0  0  0  0  0  0  0  0  0  0
    0.6716    0.8733   -0.7856 H   0  0  0  0  0  0  0  0  0  0  0  0
   -1.2742    1.2027    0.8821 H   0  0  0  0  0  0  0  0  0  0  0  0
   -0.9200   -0.4319    1.5298 H   0  0  0  0  0  0  0  0  0  0  0  0
   -1.2672   -1.3858   -0.8026 H   0  0  0  0  0  0  0  0  0  0  0  0
   -1.6615    0.2535   -1.4105 H   0  0  0  0  0  0  0  0  0  0  0  0
   -3.1961   -1.1918    0.8623 H   0  0  0  0  0  0  0  0  0  0  0  0
   -3.6238   -1.2980   -0.8763 H   0  0  0  0  0  0  0  0  0  0  0  0
   -3.5596    1.2844    0.8189 H   0  0  0  0  0  0  0  0  0  0  0  0
   -3.8843    1.2396   -0.9466 H   0  0  0  0  0  0  0  0  0  0  0  0
   -5.9529    1.3606    0.5354 H   0  0  0  0  0  0  0  0  0  0  0  0
   -5.5342   -0.2473    1.2134 H   0  0  0  0  0  0  0  0  0  0  0  0
   -6.5696   -1.2585   -0.7216 H   0  0  0  0  0  0  0  0  0  0  0  0
  1  2  1  0
  2  3  1  0
  3  4  1  0
  4  5  1  0
  5  6  1  0
  6  7  1  0
  7  8  1  0
  8  9  1  0
  9 10  1  0
 10 11  1  0
 11 12  1  0
 12 13  2  0
  1 14  1  0
  1 15  1  0
  1 16  1  0
  2 17  1  0
  2 18  1  0
  3 19  1  0
  3 20  1  0
  4 21  1  0
  4 22  1  0
  5 23  1  0
  5 24  1  0
  6 25  1  0
  6 26  1  0
  7 27  1  0
  7 28  1  0
  8 29  1  0
  8 30  1  0
  9 31  1  0
  9 32  1  0
 10 33  1  0
 10 34  1  0
 11 35  1  0
 11 36  1  0
 12 37  1  0
M  END
>  <Pepforge_Template_Role>  (1) 
N-terminal acyl cap / side-chain acyl tail source

$$$$
