Mal
     RDKit          3D

 19 19  0  0  0  0  0  0  0  0999 V2000
   -2.8283    0.8860    0.8856 N   0  0  0  0  0  0  0  0  0  0  0  0
   -2.2293   -0.4449    0.7561 C   0  0  0  0  0  0  0  0  0  0  0  0
   -0.8230   -0.4384    1.3421 C   0  0  0  0  0  0  0  0  0  0  0  0
   -0.6353   -0.6254    2.5454 O   0  0  0  0  0  0  0  0  0  0  0  0
    0.3420   -0.1962    0.4434 C   0  0  0  0  0  0  0  0  0  0  0  0
    0.2083    0.4520   -0.7899 C   0  0  0  0  0  0  0  0  0  0  0  0
    1.3293    0.6539   -1.5993 C   0  0  0  0  0  0  0  0  0  0  0  0
    2.5850    0.2159   -1.1793 C   0  0  0  0  0  0  0  0  0  0  0  0
    2.7263   -0.4183    0.0539 C   0  0  0  0  0  0  0  0  0  0  0  0
    1.6090   -0.6209    0.8658 C   0  0  0  0  0  0  0  0  0  0  0  0
   -2.7832    1.1574    1.8716 H   0  0  0  0  0  0  0  0  0  0  0  0
   -3.8218    0.8240    0.6660 H   0  0  0  0  0  0  0  0  0  0  0  0
   -2.2205   -0.7716   -0.2876 H   0  0  0  0  0  0  0  0  0  0  0  0
   -2.8213   -1.1808    1.3118 H   0  0  0  0  0  0  0  0  0  0  0  0
   -0.7529    0.8299   -1.1286 H   0  0  0  0  0  0  0  0  0  0  0  0
    1.2240    1.1623   -2.5548 H   0  0  0  0  0  0  0  0  0  0  0  0
    3.4561    0.3777   -1.8097 H   0  0  0  0  0  0  0  0  0  0  0  0
    3.7062   -0.7514    0.3868 H   0  0  0  0  0  0  0  0  0  0  0  0
    1.7295   -1.1114    1.8300 H   0  0  0  0  0  0  0  0  0  0  0  0
  1  2  1  0
  2  3  1  0
  3  4  2  0
  3  5  1  0
  5  6  2  0
  6  7  1  0
  7  8  2  0
  8  9  1  0
  9 10  2  0
 10  5  1  0
  1 11  1  0
  1 12  1  0
  2 13  1  0
  2 14  1  0
  6 15  1  0
  7 16  1  0
  8 17  1  0
  9 18  1  0
 10 19  1  0
M  END
>  <Pepforge_Template_Token>  (1) 
Mal

>  <Pepforge_Template_Category>  (1) 
chemical

>  <Pepforge_Template_Mode>  (1) 
manifest_driven_template_checked_v120

>  <Pepforge_Version>  (1) 
1.2.0

>  <Pepforge_Curation_Status>  (1) 
rdkit_generated_template_checked_v120

$$$$
