Myr
     RDKit          3D

 43 42  0  0  0  0  0  0  0  0999 V2000
   -6.6484    0.3346    1.3113 C   0  0  0  0  0  0  0  0  0  0  0  0
   -5.4175    0.4954    0.4336 C   0  0  0  0  0  0  0  0  0  0  0  0
   -4.4058   -0.6242    0.6771 C   0  0  0  0  0  0  0  0  0  0  0  0
   -3.1687   -0.4586   -0.2084 C   0  0  0  0  0  0  0  0  0  0  0  0
   -2.1554   -1.5773    0.0410 C   0  0  0  0  0  0  0  0  0  0  0  0
   -0.9490   -1.5304   -0.9017 C   0  0  0  0  0  0  0  0  0  0  0  0
   -0.1159   -0.2444   -0.8651 C   0  0  0  0  0  0  0  0  0  0  0  0
    0.4925    0.0477    0.5083 C   0  0  0  0  0  0  0  0  0  0  0  0
    1.3259    1.3335    0.5447 C   0  0  0  0  0  0  0  0  0  0  0  0
    2.5326    1.3798   -0.3977 C   0  0  0  0  0  0  0  0  0  0  0  0
    3.5451    0.2596   -0.1484 C   0  0  0  0  0  0  0  0  0  0  0  0
    4.7825    0.4255   -1.0375 C   0  0  0  0  0  0  0  0  0  0  0  0
    5.8009   -0.6931   -0.8340 C   0  0  0  0  0  0  0  0  0  0  0  0
    6.5838   -0.5840    0.4538 C   0  0  0  0  0  0  0  0  0  0  0  0
    6.5037    0.3470    1.2477 O   0  0  0  0  0  0  0  0  0  0  0  0
   -7.1543   -0.6146    1.1075 H   0  0  0  0  0  0  0  0  0  0  0  0
   -6.3798    0.3603    2.3722 H   0  0  0  0  0  0  0  0  0  0  0  0
   -7.3583    1.1456    1.1209 H   0  0  0  0  0  0  0  0  0  0  0  0
   -5.7242    0.4979   -0.6189 H   0  0  0  0  0  0  0  0  0  0  0  0
   -4.9542    1.4675    0.6389 H   0  0  0  0  0  0  0  0  0  0  0  0
   -4.1049   -0.6246    1.7319 H   0  0  0  0  0  0  0  0  0  0  0  0
   -4.8761   -1.5941    0.4747 H   0  0  0  0  0  0  0  0  0  0  0  0
   -2.7106    0.5154   -0.0031 H   0  0  0  0  0  0  0  0  0  0  0  0
   -3.4688   -0.4626   -1.2632 H   0  0  0  0  0  0  0  0  0  0  0  0
   -1.8197   -1.5500    1.0840 H   0  0  0  0  0  0  0  0  0  0  0  0
   -2.6516   -2.5467   -0.0944 H   0  0  0  0  0  0  0  0  0  0  0  0
   -1.2998   -1.6837   -1.9300 H   0  0  0  0  0  0  0  0  0  0  0  0
   -0.2962   -2.3815   -0.6706 H   0  0  0  0  0  0  0  0  0  0  0  0
    0.6854   -0.3546   -1.6048 H   0  0  0  0  0  0  0  0  0  0  0  0
   -0.7229    0.6071   -1.1928 H   0  0  0  0  0  0  0  0  0  0  0  0
   -0.3088    0.1583    1.2479 H   0  0  0  0  0  0  0  0  0  0  0  0
    1.0992   -0.8039    0.8361 H   0  0  0  0  0  0  0  0  0  0  0  0
    1.6766    1.4869    1.5731 H   0  0  0  0  0  0  0  0  0  0  0  0
    0.6736    2.1849    0.3132 H   0  0  0  0  0  0  0  0  0  0  0  0
    3.0299    2.3485   -0.2612 H   0  0  0  0  0  0  0  0  0  0  0  0
    2.1971    1.3534   -1.4407 H   0  0  0  0  0  0  0  0  0  0  0  0
    3.0854   -0.7130   -0.3571 H   0  0  0  0  0  0  0  0  0  0  0  0
    3.8363    0.2612    0.9079 H   0  0  0  0  0  0  0  0  0  0  0  0
    5.2481    1.4008   -0.8510 H   0  0  0  0  0  0  0  0  0  0  0  0
    4.4649    0.4183   -2.0875 H   0  0  0  0  0  0  0  0  0  0  0  0
    5.3113   -1.6725   -0.8523 H   0  0  0  0  0  0  0  0  0  0  0  0
    6.5340   -0.6700   -1.6481 H   0  0  0  0  0  0  0  0  0  0  0  0
    7.2820   -1.4178    0.6428 H   0  0  0  0  0  0  0  0  0  0  0  0
  1  2  1  0
  2  3  1  0
  3  4  1  0
  4  5  1  0
  5  6  1  0
  6  7  1  0
  7  8  1  0
  8  9  1  0
  9 10  1  0
 10 11  1  0
 11 12  1  0
 12 13  1  0
 13 14  1  0
 14 15  2  0
  1 16  1  0
  1 17  1  0
  1 18  1  0
  2 19  1  0
  2 20  1  0
  3 21  1  0
  3 22  1  0
  4 23  1  0
  4 24  1  0
  5 25  1  0
  5 26  1  0
  6 27  1  0
  6 28  1  0
  7 29  1  0
  7 30  1  0
  8 31  1  0
  8 32  1  0
  9 33  1  0
  9 34  1  0
 10 35  1  0
 10 36  1  0
 11 37  1  0
 11 38  1  0
 12 39  1  0
 12 40  1  0
 13 41  1  0
 13 42  1  0
 14 43  1  0
M  END
>  <Pepforge_TemplateRole>  (1) 
explicit_attachment_fragment

>  <Pepforge_CurationStatus>  (1) 
buildable_only_as_explicit_N_terminal_or_sidechain_acyl

>  <Pepforge_Source>  (1) 
explicit_acyl_attachment_rule

>  <Pepforge_Notice>  (1) 
Attachment fragment for connected peptide construction; not a claim that this SDF is the free labeling reagent.

$$$$
