Myr_N_terminal_acyl_cap_template_v422_hotfix
     RDKit          3D

 43 42  0  0  0  0  0  0  0  0999 V2000
   -6.7255   -0.1577    1.2388 C   0  0  0  0  0  0  0  0  0  0  0  0
   -5.4752    0.2089    0.4446 C   0  0  0  0  0  0  0  0  0  0  0  0
   -4.4179   -0.8975    0.5344 C   0  0  0  0  0  0  0  0  0  0  0  0
   -3.1637   -0.5263   -0.2658 C   0  0  0  0  0  0  0  0  0  0  0  0
   -2.0969   -1.6259   -0.1590 C   0  0  0  0  0  0  0  0  0  0  0  0
   -0.8987   -1.3968   -1.0986 C   0  0  0  0  0  0  0  0  0  0  0  0
   -0.1236   -0.0862   -0.8679 C   0  0  0  0  0  0  0  0  0  0  0  0
    0.5363   -0.0157    0.5195 C   0  0  0  0  0  0  0  0  0  0  0  0
    1.3126    1.2943    0.7496 C   0  0  0  0  0  0  0  0  0  0  0  0
    2.5116    1.5213   -0.1896 C   0  0  0  0  0  0  0  0  0  0  0  0
    3.5753    0.4187   -0.0842 C   0  0  0  0  0  0  0  0  0  0  0  0
    4.8341    0.7914   -0.8816 C   0  0  0  0  0  0  0  0  0  0  0  0
    5.8892   -0.3230   -0.8521 C   0  0  0  0  0  0  0  0  0  0  0  0
    6.4645   -0.5186    0.5203 C   0  0  0  0  0  0  0  0  0  0  0  0
    7.1143    0.3678    1.0516 O   0  0  0  0  0  0  0  0  0  0  0  0
   -7.1762   -1.0914    0.8398 H   0  0  0  0  0  0  0  0  0  0  0  0
   -6.4733   -0.3009    2.3112 H   0  0  0  0  0  0  0  0  0  0  0  0
   -7.4717    0.6603    1.1558 H   0  0  0  0  0  0  0  0  0  0  0  0
   -5.7591    0.3710   -0.6181 H   0  0  0  0  0  0  0  0  0  0  0  0
   -5.0597    1.1585    0.8470 H   0  0  0  0  0  0  0  0  0  0  0  0
   -4.1404   -1.0559    1.6000 H   0  0  0  0  0  0  0  0  0  0  0  0
   -4.8431   -1.8447    0.1349 H   0  0  0  0  0  0  0  0  0  0  0  0
   -2.7556    0.4267    0.1340 H   0  0  0  0  0  0  0  0  0  0  0  0
   -3.4388   -0.3786   -1.3334 H   0  0  0  0  0  0  0  0  0  0  0  0
   -1.7522   -1.7216    0.8921 H   0  0  0  0  0  0  0  0  0  0  0  0
   -2.5564   -2.6000   -0.4365 H   0  0  0  0  0  0  0  0  0  0  0  0
   -1.2634   -1.4088   -2.1489 H   0  0  0  0  0  0  0  0  0  0  0  0
   -0.1967   -2.2525   -0.9914 H   0  0  0  0  0  0  0  0  0  0  0  0
    0.6645   -0.0390   -1.6479 H   0  0  0  0  0  0  0  0  0  0  0  0
   -0.7887    0.7894   -1.0218 H   0  0  0  0  0  0  0  0  0  0  0  0
   -0.2519   -0.0618    1.2994 H   0  0  0  0  0  0  0  0  0  0  0  0
    1.2006   -0.8918    0.6738 H   0  0  0  0  0  0  0  0  0  0  0  0
    1.6769    1.3066    1.8001 H   0  0  0  0  0  0  0  0  0  0  0  0
    0.6117    2.1508    0.6415 H   0  0  0  0  0  0  0  0  0  0  0  0
    2.9740    2.4936    0.0892 H   0  0  0  0  0  0  0  0  0  0  0  0
    2.1671    1.6193   -1.2405 H   0  0  0  0  0  0  0  0  0  0  0  0
    3.1657   -0.5316   -0.4887 H   0  0  0  0  0  0  0  0  0  0  0  0
    3.8431    0.2672    0.9842 H   0  0  0  0  0  0  0  0  0  0  0  0
    5.2725    1.7327   -0.4826 H   0  0  0  0  0  0  0  0  0  0  0  0
    4.5499    0.9729   -1.9414 H   0  0  0  0  0  0  0  0  0  0  0  0
    5.4383   -1.2765   -1.2030 H   0  0  0  0  0  0  0  0  0  0  0  0
    6.7136   -0.0630   -1.5503 H   0  0  0  0  0  0  0  0  0  0  0  0
    6.3131   -1.4580    1.0417 H   0  0  0  0  0  0  0  0  0  0  0  0
  1  2  1  0
  2  3  1  0
  3  4  1  0
  4  5  1  0
  5  6  1  0
  6  7  1  0
  7  8  1  0
  8  9  1  0
  9 10  1  0
 10 11  1  0
 11 12  1  0
 12 13  1  0
 13 14  1  0
 14 15  2  0
  1 16  1  0
  1 17  1  0
  1 18  1  0
  2 19  1  0
  2 20  1  0
  3 21  1  0
  3 22  1  0
  4 23  1  0
  4 24  1  0
  5 25  1  0
  5 26  1  0
  6 27  1  0
  6 28  1  0
  7 29  1  0
  7 30  1  0
  8 31  1  0
  8 32  1  0
  9 33  1  0
  9 34  1  0
 10 35  1  0
 10 36  1  0
 11 37  1  0
 11 38  1  0
 12 39  1  0
 12 40  1  0
 13 41  1  0
 13 42  1  0
 14 43  1  0
M  END
>  <Pepforge_Template_Role>  (1) 
N-terminal acyl cap / side-chain acyl tail source

$$$$
