Nal
     RDKit          3D

 28 29  0  0  0  0  0  0  0  0999 V2000
   -3.3543   -0.0604   -1.4101 N   0  0  0  0  0  0  0  0  0  0  0  0
   -2.7860   -0.7682   -0.2506 C   0  0  1  0  0  0  0  0  0  0  0  0
   -1.2743   -1.0468   -0.3760 C   0  0  0  0  0  0  0  0  0  0  0  0
   -0.2568    0.0871   -0.3159 C   0  0  0  0  0  0  0  0  0  0  0  0
   -0.6526    1.4284   -0.4535 C   0  0  0  0  0  0  0  0  0  0  0  0
    0.2732    2.4654   -0.3809 C   0  0  0  0  0  0  0  0  0  0  0  0
    1.6191    2.1844   -0.1813 C   0  0  0  0  0  0  0  0  0  0  0  0
    2.0634    0.8623   -0.0672 C   0  0  0  0  0  0  0  0  0  0  0  0
    3.4322    0.6030    0.1159 C   0  0  0  0  0  0  0  0  0  0  0  0
    3.9093   -0.7013    0.2185 C   0  0  0  0  0  0  0  0  0  0  0  0
    3.0219   -1.7639    0.1349 C   0  0  0  0  0  0  0  0  0  0  0  0
    1.6571   -1.5206   -0.0445 C   0  0  0  0  0  0  0  0  0  0  0  0
    1.1335   -0.2082   -0.1427 C   0  0  0  0  0  0  0  0  0  0  0  0
   -3.1220   -0.0341    1.0461 C   0  0  0  0  0  0  0  0  0  0  0  0
   -4.1129    0.6812    1.1893 O   0  0  0  0  0  0  0  0  0  0  0  0
   -3.4277   -0.6931   -2.2040 H   0  0  0  0  0  0  0  0  0  0  0  0
   -4.3065    0.2314   -1.1720 H   0  0  0  0  0  0  0  0  0  0  0  0
   -3.2930   -1.7386   -0.1732 H   0  0  0  0  0  0  0  0  0  0  0  0
   -1.0369   -1.7334    0.4481 H   0  0  0  0  0  0  0  0  0  0  0  0
   -1.1013   -1.5953   -1.3118 H   0  0  0  0  0  0  0  0  0  0  0  0
   -1.6904    1.7014   -0.6293 H   0  0  0  0  0  0  0  0  0  0  0  0
   -0.0587    3.4953   -0.4855 H   0  0  0  0  0  0  0  0  0  0  0  0
    2.3232    3.0118   -0.1281 H   0  0  0  0  0  0  0  0  0  0  0  0
    4.1436    1.4242    0.1762 H   0  0  0  0  0  0  0  0  0  0  0  0
    4.9714   -0.8838    0.3573 H   0  0  0  0  0  0  0  0  0  0  0  0
    3.3869   -2.7852    0.2056 H   0  0  0  0  0  0  0  0  0  0  0  0
    1.0055   -2.3872   -0.1162 H   0  0  0  0  0  0  0  0  0  0  0  0
   -2.4670   -0.2559    1.9064 H   0  0  0  0  0  0  0  0  0  0  0  0
  1  2  1  0
  2  3  1  0
  3  4  1  0
  4  5  2  0
  5  6  1  0
  6  7  2  0
  7  8  1  0
  8  9  2  0
  9 10  1  0
 10 11  2  0
 11 12  1  0
 12 13  2  0
  2 14  1  0
 14 15  2  0
 13  4  1  0
 13  8  1  0
  1 16  1  0
  1 17  1  0
  2 18  1  1
  3 19  1  0
  3 20  1  0
  5 21  1  0
  6 22  1  0
  7 23  1  0
  9 24  1  0
 10 25  1  0
 11 26  1  0
 12 27  1  0
 14 28  1  0
M  END
>  <Pepforge_Template_Token>  (1) 
Nal

>  <Pepforge_Template_Category>  (1) 
non_natural_aa

>  <Pepforge_Template_Mode>  (1) 
manifest_driven_template_checked_v120

>  <Pepforge_Version>  (1) 
1.2.0

>  <Pepforge_Curation_Status>  (1) 
rdkit_generated_template_checked_v120

$$$$
