NBD
     RDKit          3D

 17 18  0  0  0  0  0  0  0  0999 V2000
   -2.7697    0.3205    0.8406 N   0  0  0  0  0  0  0  0  0  0  0  0
   -1.4232    0.2465    0.4628 C   0  0  0  0  0  0  0  0  0  0  0  0
   -0.6249    1.4124    0.4009 C   0  0  0  0  0  0  0  0  0  0  0  0
    0.7302    1.4140   -0.0165 C   0  0  0  0  0  0  0  0  0  0  0  0
    1.3761    0.2269   -0.4084 C   0  0  0  0  0  0  0  0  0  0  0  0
    2.7472    0.2152   -0.8350 N   0  0  0  0  0  0  0  0  0  0  0  0
    3.4865   -0.6678   -0.3851 O   0  0  0  0  0  0  0  0  0  0  0  0
    3.1022    1.1321   -1.5882 O   0  0  0  0  0  0  0  0  0  0  0  0
    0.6274   -0.9601   -0.3975 C   0  0  0  0  0  0  0  0  0  0  0  0
    0.9300   -2.2187   -0.7442 N   0  0  0  0  0  0  0  0  0  0  0  0
   -0.2124   -2.9658   -0.5240 O   0  0  0  0  0  0  0  0  0  0  0  0
   -1.2518   -2.1882   -0.0464 N   0  0  0  0  0  0  0  0  0  0  0  0
   -0.7672   -0.9416    0.0358 C   0  0  0  0  0  0  0  0  0  0  0  0
   -2.9324    0.8461    1.6947 H   0  0  0  0  0  0  0  0  0  0  0  0
   -3.2130   -0.5985    0.8695 H   0  0  0  0  0  0  0  0  0  0  0  0
   -1.0768    2.3669    0.6766 H   0  0  0  0  0  0  0  0  0  0  0  0
    1.2718    2.3603   -0.0357 H   0  0  0  0  0  0  0  0  0  0  0  0
  1  2  1  0
  2  3  2  0
  3  4  1  0
  4  5  2  0
  5  6  1  0
  6  7  2  0
  6  8  1  0
  5  9  1  0
  9 10  2  0
 10 11  1  0
 11 12  1  0
 12 13  2  0
 13  2  1  0
 13  9  1  0
  1 14  1  0
  1 15  1  0
  3 16  1  0
  4 17  1  0
M  CHG  2   6   1   8  -1
M  END
>  <Pepforge_Template_Token>  (1) 
NBD

>  <Pepforge_Template_Category>  (1) 
label

>  <Pepforge_Template_Mode>  (1) 
manifest_driven_template_checked_v120

>  <Pepforge_Version>  (1) 
1.2.0

>  <Pepforge_Curation_Status>  (1) 
rdkit_generated_template_checked_v120

$$$$
