Nle
     RDKit          3D

 21 20  0  0  0  0  0  0  0  0999 V2000
   -2.8788    0.6785    0.7083 N   0  0  0  0  0  0  0  0  0  0  0  0
   -1.5665    0.4670    0.0729 C   0  0  1  0  0  0  0  0  0  0  0  0
   -0.7212   -0.5192    0.8883 C   0  0  0  0  0  0  0  0  0  0  0  0
    0.6945   -0.7614    0.3470 C   0  0  0  0  0  0  0  0  0  0  0  0
    1.5684    0.4933    0.3420 C   0  0  0  0  0  0  0  0  0  0  0  0
    2.9945    0.1735   -0.0799 C   0  0  0  0  0  0  0  0  0  0  0  0
   -1.7869   -0.0628   -1.3431 C   0  0  0  0  0  0  0  0  0  0  0  0
   -2.7049   -0.8160   -1.6626 O   0  0  0  0  0  0  0  0  0  0  0  0
   -2.7865    0.6830    1.7220 H   0  0  0  0  0  0  0  0  0  0  0  0
   -3.4765   -0.1217    0.4779 H   0  0  0  0  0  0  0  0  0  0  0  0
   -1.0792    1.4432   -0.0024 H   0  0  0  0  0  0  0  0  0  0  0  0
   -0.6391   -0.1628    1.9235 H   0  0  0  0  0  0  0  0  0  0  0  0
   -1.2331   -1.4900    0.9331 H   0  0  0  0  0  0  0  0  0  0  0  0
    1.1698   -1.5246    0.9763 H   0  0  0  0  0  0  0  0  0  0  0  0
    0.6445   -1.1831   -0.6637 H   0  0  0  0  0  0  0  0  0  0  0  0
    1.1602    1.2396   -0.3475 H   0  0  0  0  0  0  0  0  0  0  0  0
    1.5817    0.9430    1.3414 H   0  0  0  0  0  0  0  0  0  0  0  0
    3.4566   -0.5420    0.6078 H   0  0  0  0  0  0  0  0  0  0  0  0
    3.6023    1.0837   -0.0813 H   0  0  0  0  0  0  0  0  0  0  0  0
    3.0188   -0.2530   -1.0878 H   0  0  0  0  0  0  0  0  0  0  0  0
   -1.0187    0.2317   -2.0787 H   0  0  0  0  0  0  0  0  0  0  0  0
  1  2  1  0
  2  3  1  0
  3  4  1  0
  4  5  1  0
  5  6  1  0
  2  7  1  0
  7  8  2  0
  1  9  1  0
  1 10  1  0
  2 11  1  6
  3 12  1  0
  3 13  1  0
  4 14  1  0
  4 15  1  0
  5 16  1  0
  5 17  1  0
  6 18  1  0
  6 19  1  0
  6 20  1  0
  7 21  1  0
M  END
>  <Pepforge_Template_Token>  (1) 
Nle

>  <Pepforge_Template_Category>  (1) 
non_natural_aa

>  <Pepforge_Template_Mode>  (1) 
manifest_driven_template_checked_v120

>  <Pepforge_Version>  (1) 
1.2.0

>  <Pepforge_Curation_Status>  (1) 
rdkit_generated_template_checked_v120

$$$$
