Nva
     RDKit          3D

 18 17  0  0  0  0  0  0  0  0999 V2000
    1.8064    1.6190   -0.1133 N   0  0  0  0  0  0  0  0  0  0  0  0
    0.8779    0.5600    0.2849 C   0  0  1  0  0  0  0  0  0  0  0  0
    0.0368    0.1172   -0.9328 C   0  0  0  0  0  0  0  0  0  0  0  0
   -1.0061   -0.9711   -0.6169 C   0  0  0  0  0  0  0  0  0  0  0  0
   -2.1251   -0.4748    0.2982 C   0  0  0  0  0  0  0  0  0  0  0  0
    1.6533   -0.5952    0.8624 C   0  0  0  0  0  0  0  0  0  0  0  0
    2.5030   -1.1694    0.1993 O   0  0  0  0  0  0  0  0  0  0  0  0
    1.2486    2.4451   -0.4312 H   0  0  0  0  0  0  0  0  0  0  0  0
    2.3286    1.9368    0.7362 H   0  0  0  0  0  0  0  0  0  0  0  0
    0.2018    0.9609    1.0719 H   0  0  0  0  0  0  0  0  0  0  0  0
   -0.4869    1.0008   -1.3594 H   0  0  0  0  0  0  0  0  0  0  0  0
    0.7179   -0.2672   -1.7238 H   0  0  0  0  0  0  0  0  0  0  0  0
   -1.4630   -1.3016   -1.5748 H   0  0  0  0  0  0  0  0  0  0  0  0
   -0.5189   -1.8594   -0.1611 H   0  0  0  0  0  0  0  0  0  0  0  0
   -2.5784    0.4541   -0.1085 H   0  0  0  0  0  0  0  0  0  0  0  0
   -1.7404   -0.2837    1.3212 H   0  0  0  0  0  0  0  0  0  0  0  0
   -2.9154   -1.2516    0.3683 H   0  0  0  0  0  0  0  0  0  0  0  0
    1.4597   -0.9198    1.8795 H   0  0  0  0  0  0  0  0  0  0  0  0
  1  2  1  0
  2  3  1  0
  3  4  1  0
  4  5  1  0
  2  6  1  0
  6  7  2  0
  1  8  1  0
  1  9  1  0
  2 10  1  1
  3 11  1  0
  3 12  1  0
  4 13  1  0
  4 14  1  0
  5 15  1  0
  5 16  1  0
  5 17  1  0
  6 18  1  0
M  END
>  <Pepforge_TemplateRole>  (1) 
explicit_attachment_fragment

>  <Pepforge_CurationStatus>  (1) 
explicit_residue_graph

>  <Pepforge_Source>  (1) 
explicit_residue_fragment

>  <Pepforge_Notice>  (1) 
Attachment fragment for connected peptide construction; not a free-reagent or experimental-structure claim.

$$$$
