Orn
     RDKit          3D

 20 19  0  0  0  0  0  0  0  0999 V2000
   -2.1176   -0.9872    0.9584 N   0  0  0  0  0  0  0  0  0  0  0  0
   -1.5151    0.3225    0.6509 C   0  0  1  0  0  0  0  0  0  0  0  0
   -0.2113    0.1729   -0.1391 C   0  0  0  0  0  0  0  0  0  0  0  0
    0.8829   -0.5570    0.6503 C   0  0  0  0  0  0  0  0  0  0  0  0
    2.1941   -0.6729   -0.1274 C   0  0  0  0  0  0  0  0  0  0  0  0
    2.7864    0.6366   -0.3803 N   0  0  0  0  0  0  0  0  0  0  0  0
   -2.4999    1.1714   -0.1528 C   0  0  0  0  0  0  0  0  0  0  0  0
   -3.6546    0.8337   -0.4066 O   0  0  0  0  0  0  0  0  0  0  0  0
   -2.3520   -1.4461    0.0749 H   0  0  0  0  0  0  0  0  0  0  0  0
   -3.0342   -0.8147    1.3817 H   0  0  0  0  0  0  0  0  0  0  0  0
   -1.3255    0.8549    1.5896 H   0  0  0  0  0  0  0  0  0  0  0  0
    0.1435    1.1719   -0.4229 H   0  0  0  0  0  0  0  0  0  0  0  0
   -0.4017   -0.3588   -1.0811 H   0  0  0  0  0  0  0  0  0  0  0  0
    1.0606   -0.0398    1.6017 H   0  0  0  0  0  0  0  0  0  0  0  0
    0.5454   -1.5700    0.8996 H   0  0  0  0  0  0  0  0  0  0  0  0
    2.9035   -1.2817    0.4438 H   0  0  0  0  0  0  0  0  0  0  0  0
    2.0196   -1.1810   -1.0820 H   0  0  0  0  0  0  0  0  0  0  0  0
    3.0319    1.0734    0.5079 H   0  0  0  0  0  0  0  0  0  0  0  0
    3.6658    0.5128   -0.8821 H   0  0  0  0  0  0  0  0  0  0  0  0
   -2.1219    2.1590   -0.4699 H   0  0  0  0  0  0  0  0  0  0  0  0
  1  2  1  0
  2  3  1  0
  3  4  1  0
  4  5  1  0
  5  6  1  0
  2  7  1  0
  7  8  2  0
  1  9  1  0
  1 10  1  0
  2 11  1  1
  3 12  1  0
  3 13  1  0
  4 14  1  0
  4 15  1  0
  5 16  1  0
  5 17  1  0
  6 18  1  0
  6 19  1  0
  7 20  1  0
M  END
>  <Pepforge_Template_Token>  (1) 
Orn

>  <Pepforge_Template_Category>  (1) 
non_natural_aa

>  <Pepforge_Template_Mode>  (1) 
manifest_driven_template_checked_v120

>  <Pepforge_Version>  (1) 
1.2.0

>  <Pepforge_Curation_Status>  (1) 
rdkit_generated_template_checked_v120

$$$$
