Pal
     RDKit          3D

 49 48  0  0  0  0  0  0  0  0999 V2000
    6.3141    2.3956   -0.5557 C   0  0  0  0  0  0  0  0  0  0  0  0
    4.9938    1.6411   -0.5935 C   0  0  0  0  0  0  0  0  0  0  0  0
    5.0324    0.4055    0.3068 C   0  0  0  0  0  0  0  0  0  0  0  0
    3.6881   -0.3254    0.3922 C   0  0  0  0  0  0  0  0  0  0  0  0
    3.2611   -0.9617   -0.9335 C   0  0  0  0  0  0  0  0  0  0  0  0
    2.0135   -1.8466   -0.8150 C   0  0  0  0  0  0  0  0  0  0  0  0
    0.6918   -1.1431   -1.1437 C   0  0  0  0  0  0  0  0  0  0  0  0
    0.2351   -0.0572   -0.1681 C   0  0  0  0  0  0  0  0  0  0  0  0
    0.0361   -0.5125    1.2812 C   0  0  0  0  0  0  0  0  0  0  0  0
   -0.9639   -1.6557    1.4853 C   0  0  0  0  0  0  0  0  0  0  0  0
   -2.3785   -1.4029    0.9530 C   0  0  0  0  0  0  0  0  0  0  0  0
   -3.0619   -0.1971    1.6028 C   0  0  0  0  0  0  0  0  0  0  0  0
   -4.5401   -0.0621    1.2234 C   0  0  0  0  0  0  0  0  0  0  0  0
   -4.7599    0.2453   -0.2588 C   0  0  0  0  0  0  0  0  0  0  0  0
   -6.2359    0.4833   -0.5605 C   0  0  0  0  0  0  0  0  0  0  0  0
   -6.4245    0.7868   -2.0229 C   0  0  0  0  0  0  0  0  0  0  0  0
   -7.0196    1.7780   -2.4342 O   0  0  0  0  0  0  0  0  0  0  0  0
    6.5416    2.7386    0.4586 H   0  0  0  0  0  0  0  0  0  0  0  0
    7.1382    1.7611   -0.8974 H   0  0  0  0  0  0  0  0  0  0  0  0
    6.2677    3.2732   -1.2082 H   0  0  0  0  0  0  0  0  0  0  0  0
    4.1879    2.3112   -0.2729 H   0  0  0  0  0  0  0  0  0  0  0  0
    4.7859    1.3521   -1.6290 H   0  0  0  0  0  0  0  0  0  0  0  0
    5.3196    0.7107    1.3209 H   0  0  0  0  0  0  0  0  0  0  0  0
    5.8073   -0.2865   -0.0448 H   0  0  0  0  0  0  0  0  0  0  0  0
    2.9268    0.3733    0.7496 H   0  0  0  0  0  0  0  0  0  0  0  0
    3.7775   -1.1110    1.1527 H   0  0  0  0  0  0  0  0  0  0  0  0
    3.1051   -0.1966   -1.7016 H   0  0  0  0  0  0  0  0  0  0  0  0
    4.0877   -1.5931   -1.2843 H   0  0  0  0  0  0  0  0  0  0  0  0
    2.1222   -2.6591   -1.5459 H   0  0  0  0  0  0  0  0  0  0  0  0
    1.9669   -2.3334    0.1651 H   0  0  0  0  0  0  0  0  0  0  0  0
   -0.0922   -1.9058   -1.2222 H   0  0  0  0  0  0  0  0  0  0  0  0
    0.7687   -0.6970   -2.1436 H   0  0  0  0  0  0  0  0  0  0  0  0
   -0.7040    0.3681   -0.5426 H   0  0  0  0  0  0  0  0  0  0  0  0
    0.9509    0.7719   -0.1853 H   0  0  0  0  0  0  0  0  0  0  0  0
   -0.2786    0.3538    1.8755 H   0  0  0  0  0  0  0  0  0  0  0  0
    0.9988   -0.8215    1.7040 H   0  0  0  0  0  0  0  0  0  0  0  0
   -0.5734   -2.5681    1.0192 H   0  0  0  0  0  0  0  0  0  0  0  0
   -1.0243   -1.8708    2.5597 H   0  0  0  0  0  0  0  0  0  0  0  0
   -2.9785   -2.3011    1.1457 H   0  0  0  0  0  0  0  0  0  0  0  0
   -2.3450   -1.2811   -0.1344 H   0  0  0  0  0  0  0  0  0  0  0  0
   -2.9962   -0.2932    2.6936 H   0  0  0  0  0  0  0  0  0  0  0  0
   -2.5378    0.7267    1.3330 H   0  0  0  0  0  0  0  0  0  0  0  0
   -5.0757   -0.9797    1.4954 H   0  0  0  0  0  0  0  0  0  0  0  0
   -4.9740    0.7464    1.8249 H   0  0  0  0  0  0  0  0  0  0  0  0
   -4.1789    1.1306   -0.5458 H   0  0  0  0  0  0  0  0  0  0  0  0
   -4.3949   -0.5836   -0.8762 H   0  0  0  0  0  0  0  0  0  0  0  0
   -6.8290   -0.4060   -0.3233 H   0  0  0  0  0  0  0  0  0  0  0  0
   -6.6223    1.3230    0.0270 H   0  0  0  0  0  0  0  0  0  0  0  0
   -6.0299    0.0335   -2.7262 H   0  0  0  0  0  0  0  0  0  0  0  0
  1  2  1  0
  2  3  1  0
  3  4  1  0
  4  5  1  0
  5  6  1  0
  6  7  1  0
  7  8  1  0
  8  9  1  0
  9 10  1  0
 10 11  1  0
 11 12  1  0
 12 13  1  0
 13 14  1  0
 14 15  1  0
 15 16  1  0
 16 17  2  0
  1 18  1  0
  1 19  1  0
  1 20  1  0
  2 21  1  0
  2 22  1  0
  3 23  1  0
  3 24  1  0
  4 25  1  0
  4 26  1  0
  5 27  1  0
  5 28  1  0
  6 29  1  0
  6 30  1  0
  7 31  1  0
  7 32  1  0
  8 33  1  0
  8 34  1  0
  9 35  1  0
  9 36  1  0
 10 37  1  0
 10 38  1  0
 11 39  1  0
 11 40  1  0
 12 41  1  0
 12 42  1  0
 13 43  1  0
 13 44  1  0
 14 45  1  0
 14 46  1  0
 15 47  1  0
 15 48  1  0
 16 49  1  0
M  END
>  <Pepforge_TemplateRole>  (1) 
explicit_attachment_fragment

>  <Pepforge_CurationStatus>  (1) 
buildable_only_as_explicit_N_terminal_or_sidechain_acyl

>  <Pepforge_Source>  (1) 
explicit_acyl_attachment_rule

>  <Pepforge_Notice>  (1) 
Attachment fragment for connected peptide construction; not a claim that this SDF is the free labeling reagent.

$$$$
