Pal_N_terminal_acyl_cap_template_v422_hotfix
     RDKit          3D

 49 48  0  0  0  0  0  0  0  0999 V2000
    6.1615    2.3561   -0.5699 C   0  0  0  0  0  0  0  0  0  0  0  0
    4.8674    1.5494   -0.5128 C   0  0  0  0  0  0  0  0  0  0  0  0
    5.0946    0.1870    0.1589 C   0  0  0  0  0  0  0  0  0  0  0  0
    3.7887   -0.5994    0.3540 C   0  0  0  0  0  0  0  0  0  0  0  0
    3.2347   -1.1629   -0.9664 C   0  0  0  0  0  0  0  0  0  0  0  0
    1.9884   -2.0492   -0.7523 C   0  0  0  0  0  0  0  0  0  0  0  0
    0.6625   -1.3510   -1.1100 C   0  0  0  0  0  0  0  0  0  0  0  0
    0.2796   -0.1779   -0.1887 C   0  0  0  0  0  0  0  0  0  0  0  0
    0.0586   -0.5575    1.2900 C   0  0  0  0  0  0  0  0  0  0  0  0
   -1.0136   -1.6378    1.5369 C   0  0  0  0  0  0  0  0  0  0  0  0
   -2.4065   -1.3105    0.9699 C   0  0  0  0  0  0  0  0  0  0  0  0
   -3.0152   -0.0389    1.5857 C   0  0  0  0  0  0  0  0  0  0  0  0
   -4.4951    0.1461    1.2156 C   0  0  0  0  0  0  0  0  0  0  0  0
   -4.6930    0.4974   -0.2667 C   0  0  0  0  0  0  0  0  0  0  0  0
   -6.1642    0.8058   -0.5655 C   0  0  0  0  0  0  0  0  0  0  0  0
   -6.3668    1.1402   -2.0139 C   0  0  0  0  0  0  0  0  0  0  0  0
   -7.4831    1.4113   -2.4255 O   0  0  0  0  0  0  0  0  0  0  0  0
    6.5414    2.5504    0.4557 H   0  0  0  0  0  0  0  0  0  0  0  0
    6.9334    1.8061   -1.1494 H   0  0  0  0  0  0  0  0  0  0  0  0
    5.9708    3.3303   -1.0676 H   0  0  0  0  0  0  0  0  0  0  0  0
    4.1088    2.1293    0.0567 H   0  0  0  0  0  0  0  0  0  0  0  0
    4.4979    1.4080   -1.5501 H   0  0  0  0  0  0  0  0  0  0  0  0
    5.5464    0.3539    1.1616 H   0  0  0  0  0  0  0  0  0  0  0  0
    5.8144   -0.4154   -0.4376 H   0  0  0  0  0  0  0  0  0  0  0  0
    3.0392    0.0507    0.8492 H   0  0  0  0  0  0  0  0  0  0  0  0
    4.0007   -1.4475    1.0413 H   0  0  0  0  0  0  0  0  0  0  0  0
    3.0038   -0.3389   -1.6736 H   0  0  0  0  0  0  0  0  0  0  0  0
    4.0283   -1.7836   -1.4379 H   0  0  0  0  0  0  0  0  0  0  0  0
    2.0789   -2.9301   -1.4253 H   0  0  0  0  0  0  0  0  0  0  0  0
    1.9496   -2.4625    0.2777 H   0  0  0  0  0  0  0  0  0  0  0  0
   -0.1525   -2.1047   -1.1099 H   0  0  0  0  0  0  0  0  0  0  0  0
    0.7272   -0.9715   -2.1531 H   0  0  0  0  0  0  0  0  0  0  0  0
   -0.6429    0.2963   -0.5850 H   0  0  0  0  0  0  0  0  0  0  0  0
    1.0637    0.6053   -0.2465 H   0  0  0  0  0  0  0  0  0  0  0  0
   -0.2119    0.3610    1.8527 H   0  0  0  0  0  0  0  0  0  0  0  0
    1.0143   -0.9088    1.7304 H   0  0  0  0  0  0  0  0  0  0  0  0
   -0.6692   -2.6036    1.1103 H   0  0  0  0  0  0  0  0  0  0  0  0
   -1.1029   -1.7969    2.6336 H   0  0  0  0  0  0  0  0  0  0  0  0
   -3.0718   -2.1733    1.1918 H   0  0  0  0  0  0  0  0  0  0  0  0
   -2.3497   -1.2181   -0.1338 H   0  0  0  0  0  0  0  0  0  0  0  0
   -2.9436   -0.1045    2.6934 H   0  0  0  0  0  0  0  0  0  0  0  0
   -2.4429    0.8566    1.2614 H   0  0  0  0  0  0  0  0  0  0  0  0
   -5.0648   -0.7756    1.4660 H   0  0  0  0  0  0  0  0  0  0  0  0
   -4.9026    0.9727    1.8383 H   0  0  0  0  0  0  0  0  0  0  0  0
   -4.0733    1.3850   -0.5233 H   0  0  0  0  0  0  0  0  0  0  0  0
   -4.3706   -0.3571   -0.8997 H   0  0  0  0  0  0  0  0  0  0  0  0
   -6.7897   -0.0772   -0.3104 H   0  0  0  0  0  0  0  0  0  0  0  0
   -6.4982    1.6688    0.0507 H   0  0  0  0  0  0  0  0  0  0  0  0
   -5.5307    1.1450   -2.7071 H   0  0  0  0  0  0  0  0  0  0  0  0
  1  2  1  0
  2  3  1  0
  3  4  1  0
  4  5  1  0
  5  6  1  0
  6  7  1  0
  7  8  1  0
  8  9  1  0
  9 10  1  0
 10 11  1  0
 11 12  1  0
 12 13  1  0
 13 14  1  0
 14 15  1  0
 15 16  1  0
 16 17  2  0
  1 18  1  0
  1 19  1  0
  1 20  1  0
  2 21  1  0
  2 22  1  0
  3 23  1  0
  3 24  1  0
  4 25  1  0
  4 26  1  0
  5 27  1  0
  5 28  1  0
  6 29  1  0
  6 30  1  0
  7 31  1  0
  7 32  1  0
  8 33  1  0
  8 34  1  0
  9 35  1  0
  9 36  1  0
 10 37  1  0
 10 38  1  0
 11 39  1  0
 11 40  1  0
 12 41  1  0
 12 42  1  0
 13 43  1  0
 13 44  1  0
 14 45  1  0
 14 46  1  0
 15 47  1  0
 15 48  1  0
 16 49  1  0
M  END
>  <Pepforge_Template_Role>  (1) 
N-terminal acyl cap / side-chain acyl tail source

$$$$
