PEG1
     RDKit          3D

 19 18  0  0  0  0  0  0  0  0999 V2000
   -2.0807    0.7773   -1.3696 N   0  0  0  0  0  0  0  0  0  0  0  0
   -2.3102   -0.4647   -0.6381 C   0  0  0  0  0  0  0  0  0  0  0  0
   -1.1172   -0.7907    0.2604 C   0  0  0  0  0  0  0  0  0  0  0  0
    0.0286   -1.0633   -0.5287 O   0  0  0  0  0  0  0  0  0  0  0  0
    0.9843   -0.0232   -0.4403 C   0  0  0  0  0  0  0  0  0  0  0  0
    1.9207   -0.2554    0.7501 C   0  0  0  0  0  0  0  0  0  0  0  0
    2.9993    0.7846    0.7970 C   0  0  0  0  0  0  0  0  0  0  0  0
    2.7223    1.9547    1.0081 O   0  0  0  0  0  0  0  0  0  0  0  0
   -2.8874    0.9166   -2.0202 H   0  0  0  0  0  0  0  0  0  0  0  0
   -2.1104    1.5689   -0.6863 H   0  0  0  0  0  0  0  0  0  0  0  0
   -2.4618   -1.2968   -1.3602 H   0  0  0  0  0  0  0  0  0  0  0  0
   -3.2282   -0.3721   -0.0157 H   0  0  0  0  0  0  0  0  0  0  0  0
   -0.9792    0.0177    1.0174 H   0  0  0  0  0  0  0  0  0  0  0  0
   -1.3607   -1.7101    0.8337 H   0  0  0  0  0  0  0  0  0  0  0  0
    0.5174    0.9885   -0.3920 H   0  0  0  0  0  0  0  0  0  0  0  0
    1.5889   -0.0425   -1.3724 H   0  0  0  0  0  0  0  0  0  0  0  0
    2.3895   -1.2585    0.6555 H   0  0  0  0  0  0  0  0  0  0  0  0
    1.3486   -0.2278    1.7017 H   0  0  0  0  0  0  0  0  0  0  0  0
    4.0361    0.4967    0.6567 H   0  0  0  0  0  0  0  0  0  0  0  0
  1  2  1  0
  2  3  1  0
  3  4  1  0
  4  5  1  0
  5  6  1  0
  6  7  1  0
  7  8  2  0
  1  9  1  0
  1 10  1  0
  2 11  1  0
  2 12  1  0
  3 13  1  0
  3 14  1  0
  5 15  1  0
  5 16  1  0
  6 17  1  0
  6 18  1  0
  7 19  1  0
M  END
>  <Pepforge_TemplateRole>  (1) 
explicit_attachment_fragment

>  <Pepforge_CurationStatus>  (1) 
explicit_linear_linker_graph

>  <Pepforge_Source>  (1) 
database_or_explicit_linker_convention

>  <Pepforge_Notice>  (1) 
Attachment fragment for connected peptide construction; not a free-reagent or experimental-structure claim.

$$$$
