PEG12
     RDKit          3D

 96 95  0  0  0  0  0  0  0  0999 V2000
   14.6149   -2.3079   -1.6832 N   0  0  0  0  0  0  0  0  0  0  0  0
   15.5097   -2.3872   -0.5364 C   0  0  0  0  0  0  0  0  0  0  0  0
   14.7188   -2.6155    0.7504 C   0  0  0  0  0  0  0  0  0  0  0  0
   13.8301   -1.5363    0.9713 O   0  0  0  0  0  0  0  0  0  0  0  0
   12.4877   -1.9735    0.9040 C   0  0  0  0  0  0  0  0  0  0  0  0
   11.5570   -0.7836    1.1140 C   0  0  0  0  0  0  0  0  0  0  0  0
   10.2118   -1.2061    1.0072 O   0  0  0  0  0  0  0  0  0  0  0  0
    9.6683   -0.9055   -0.2649 C   0  0  0  0  0  0  0  0  0  0  0  0
    8.9129    0.4249   -0.2251 C   0  0  0  0  0  0  0  0  0  0  0  0
    7.9700    0.3960    0.8312 O   0  0  0  0  0  0  0  0  0  0  0  0
    8.3177    1.3015    1.8625 C   0  0  0  0  0  0  0  0  0  0  0  0
    7.7823    0.7812    3.1990 C   0  0  0  0  0  0  0  0  0  0  0  0
    6.4659    0.2840    3.0781 O   0  0  0  0  0  0  0  0  0  0  0  0
    5.5019    1.3201    3.0736 C   0  0  0  0  0  0  0  0  0  0  0  0
    4.7411    1.2948    1.7482 C   0  0  0  0  0  0  0  0  0  0  0  0
    3.5854    2.1139    1.8504 O   0  0  0  0  0  0  0  0  0  0  0  0
    2.4251    1.3728    1.5322 C   0  0  0  0  0  0  0  0  0  0  0  0
    1.2028    2.2762    1.6102 C   0  0  0  0  0  0  0  0  0  0  0  0
    0.0545    1.5195    1.2901 O   0  0  0  0  0  0  0  0  0  0  0  0
   -1.0921    2.3462    1.2264 C   0  0  0  0  0  0  0  0  0  0  0  0
   -1.3534    2.7935   -0.2117 C   0  0  0  0  0  0  0  0  0  0  0  0
   -1.4382    1.6576   -1.0507 O   0  0  0  0  0  0  0  0  0  0  0  0
   -1.7525    2.0328   -2.3796 C   0  0  0  0  0  0  0  0  0  0  0  0
   -3.2667    2.0127   -2.6237 C   0  0  0  0  0  0  0  0  0  0  0  0
   -3.7631    0.6898   -2.7033 O   0  0  0  0  0  0  0  0  0  0  0  0
   -4.0787    0.1725   -1.4244 C   0  0  0  0  0  0  0  0  0  0  0  0
   -5.0384   -1.0077   -1.5803 C   0  0  0  0  0  0  0  0  0  0  0  0
   -6.3178   -0.5457   -1.9813 O   0  0  0  0  0  0  0  0  0  0  0  0
   -6.5522   -0.8401   -3.3421 C   0  0  0  0  0  0  0  0  0  0  0  0
   -7.9038   -0.2697   -3.7555 C   0  0  0  0  0  0  0  0  0  0  0  0
   -8.9243   -0.8903   -2.9960 O   0  0  0  0  0  0  0  0  0  0  0  0
  -10.1787   -0.2972   -3.2726 C   0  0  0  0  0  0  0  0  0  0  0  0
  -10.5642    0.6907   -2.1640 C   0  0  0  0  0  0  0  0  0  0  0  0
  -10.3750    0.1549   -0.8658 O   0  0  0  0  0  0  0  0  0  0  0  0
  -11.3288   -0.8502   -0.5832 C   0  0  0  0  0  0  0  0  0  0  0  0
  -11.4626   -1.0042    0.9254 C   0  0  0  0  0  0  0  0  0  0  0  0
  -12.2585   -2.1436    1.2006 O   0  0  0  0  0  0  0  0  0  0  0  0
  -13.1734   -1.8942    2.2531 C   0  0  0  0  0  0  0  0  0  0  0  0
  -14.4794   -1.3280    1.6887 C   0  0  0  0  0  0  0  0  0  0  0  0
  -15.5239   -1.1848    2.7571 C   0  0  0  0  0  0  0  0  0  0  0  0
  -16.6429   -0.8050    2.4629 O   0  0  0  0  0  0  0  0  0  0  0  0
   15.1947   -2.0970   -2.5309 H   0  0  0  0  0  0  0  0  0  0  0  0
   14.1926   -3.2511   -1.8381 H   0  0  0  0  0  0  0  0  0  0  0  0
   16.0889   -1.4434   -0.4493 H   0  0  0  0  0  0  0  0  0  0  0  0
   16.2269   -3.2225   -0.6764 H   0  0  0  0  0  0  0  0  0  0  0  0
   14.2390   -3.6246    0.7097 H   0  0  0  0  0  0  0  0  0  0  0  0
   15.4369   -2.6459    1.5965 H   0  0  0  0  0  0  0  0  0  0  0  0
   12.2782   -2.7216    1.7013 H   0  0  0  0  0  0  0  0  0  0  0  0
   12.2744   -2.4264   -0.0885 H   0  0  0  0  0  0  0  0  0  0  0  0
   11.8236    0.0495    0.4222 H   0  0  0  0  0  0  0  0  0  0  0  0
   11.7118   -0.3941    2.1433 H   0  0  0  0  0  0  0  0  0  0  0  0
    8.9378   -1.7038   -0.5163 H   0  0  0  0  0  0  0  0  0  0  0  0
   10.4234   -0.9070   -1.0856 H   0  0  0  0  0  0  0  0  0  0  0  0
    8.3578    0.5424   -1.1813 H   0  0  0  0  0  0  0  0  0  0  0  0
    9.6425    1.2672   -0.1820 H   0  0  0  0  0  0  0  0  0  0  0  0
    7.8622    2.2920    1.6434 H   0  0  0  0  0  0  0  0  0  0  0  0
    9.4230    1.4334    1.9878 H   0  0  0  0  0  0  0  0  0  0  0  0
    8.4293   -0.0603    3.5226 H   0  0  0  0  0  0  0  0  0  0  0  0
    7.8696    1.5604    3.9891 H   0  0  0  0  0  0  0  0  0  0  0  0
    5.9104    2.3459    3.2419 H   0  0  0  0  0  0  0  0  0  0  0  0
    4.7874    1.1142    3.8971 H   0  0  0  0  0  0  0  0  0  0  0  0
    4.5337    0.2284    1.4726 H   0  0  0  0  0  0  0  0  0  0  0  0
    5.3968    1.7111    0.9497 H   0  0  0  0  0  0  0  0  0  0  0  0
    2.2929    0.5328    2.2535 H   0  0  0  0  0  0  0  0  0  0  0  0
    2.4984    0.9666    0.4971 H   0  0  0  0  0  0  0  0  0  0  0  0
    1.3390    3.1163    0.8946 H   0  0  0  0  0  0  0  0  0  0  0  0
    1.1279    2.6747    2.6449 H   0  0  0  0  0  0  0  0  0  0  0  0
   -1.0381    3.2326    1.9029 H   0  0  0  0  0  0  0  0  0  0  0  0
   -1.9634    1.7497    1.5717 H   0  0  0  0  0  0  0  0  0  0  0  0
   -2.3060    3.3723   -0.2251 H   0  0  0  0  0  0  0  0  0  0  0  0
   -0.5228    3.4604   -0.5388 H   0  0  0  0  0  0  0  0  0  0  0  0
   -1.2748    1.3034   -3.0674 H   0  0  0  0  0  0  0  0  0  0  0  0
   -1.3398    3.0277   -2.6588 H   0  0  0  0  0  0  0  0  0  0  0  0
   -3.4548    2.4889   -3.6109 H   0  0  0  0  0  0  0  0  0  0  0  0
   -3.8091    2.6482   -1.8849 H   0  0  0  0  0  0  0  0  0  0  0  0
   -3.1514   -0.1981   -0.9353 H   0  0  0  0  0  0  0  0  0  0  0  0
   -4.5643    0.9226   -0.7566 H   0  0  0  0  0  0  0  0  0  0  0  0
   -5.1473   -1.4991   -0.5890 H   0  0  0  0  0  0  0  0  0  0  0  0
   -4.5875   -1.7759   -2.2580 H   0  0  0  0  0  0  0  0  0  0  0  0
   -5.7713   -0.3846   -3.9930 H   0  0  0  0  0  0  0  0  0  0  0  0
   -6.5663   -1.9418   -3.5030 H   0  0  0  0  0  0  0  0  0  0  0  0
   -7.8916    0.8307   -3.5798 H   0  0  0  0  0  0  0  0  0  0  0  0
   -8.0554   -0.4698   -4.8435 H   0  0  0  0  0  0  0  0  0  0  0  0
  -10.2331    0.2168   -4.2617 H   0  0  0  0  0  0  0  0  0  0  0  0
  -10.9399   -1.1033   -3.3177 H   0  0  0  0  0  0  0  0  0  0  0  0
  -11.6066    1.0566   -2.3122 H   0  0  0  0  0  0  0  0  0  0  0  0
   -9.9104    1.5822   -2.2589 H   0  0  0  0  0  0  0  0  0  0  0  0
  -10.9825   -1.8179   -1.0088 H   0  0  0  0  0  0  0  0  0  0  0  0
  -12.3372   -0.6120   -0.9942 H   0  0  0  0  0  0  0  0  0  0  0  0
  -11.8725   -0.0466    1.3293 H   0  0  0  0  0  0  0  0  0  0  0  0
  -10.4554   -1.1589    1.3696 H   0  0  0  0  0  0  0  0  0  0  0  0
  -12.7512   -1.2278    3.0463 H   0  0  0  0  0  0  0  0  0  0  0  0
  -13.3914   -2.8663    2.7452 H   0  0  0  0  0  0  0  0  0  0  0  0
  -14.8607   -2.0130    0.8971 H   0  0  0  0  0  0  0  0  0  0  0  0
  -14.3008   -0.3332    1.2311 H   0  0  0  0  0  0  0  0  0  0  0  0
  -15.3034   -1.4236    3.7928 H   0  0  0  0  0  0  0  0  0  0  0  0
  1  2  1  0
  2  3  1  0
  3  4  1  0
  4  5  1  0
  5  6  1  0
  6  7  1  0
  7  8  1  0
  8  9  1  0
  9 10  1  0
 10 11  1  0
 11 12  1  0
 12 13  1  0
 13 14  1  0
 14 15  1  0
 15 16  1  0
 16 17  1  0
 17 18  1  0
 18 19  1  0
 19 20  1  0
 20 21  1  0
 21 22  1  0
 22 23  1  0
 23 24  1  0
 24 25  1  0
 25 26  1  0
 26 27  1  0
 27 28  1  0
 28 29  1  0
 29 30  1  0
 30 31  1  0
 31 32  1  0
 32 33  1  0
 33 34  1  0
 34 35  1  0
 35 36  1  0
 36 37  1  0
 37 38  1  0
 38 39  1  0
 39 40  1  0
 40 41  2  0
  1 42  1  0
  1 43  1  0
  2 44  1  0
  2 45  1  0
  3 46  1  0
  3 47  1  0
  5 48  1  0
  5 49  1  0
  6 50  1  0
  6 51  1  0
  8 52  1  0
  8 53  1  0
  9 54  1  0
  9 55  1  0
 11 56  1  0
 11 57  1  0
 12 58  1  0
 12 59  1  0
 14 60  1  0
 14 61  1  0
 15 62  1  0
 15 63  1  0
 17 64  1  0
 17 65  1  0
 18 66  1  0
 18 67  1  0
 20 68  1  0
 20 69  1  0
 21 70  1  0
 21 71  1  0
 23 72  1  0
 23 73  1  0
 24 74  1  0
 24 75  1  0
 26 76  1  0
 26 77  1  0
 27 78  1  0
 27 79  1  0
 29 80  1  0
 29 81  1  0
 30 82  1  0
 30 83  1  0
 32 84  1  0
 32 85  1  0
 33 86  1  0
 33 87  1  0
 35 88  1  0
 35 89  1  0
 36 90  1  0
 36 91  1  0
 38 92  1  0
 38 93  1  0
 39 94  1  0
 39 95  1  0
 40 96  1  0
M  END
>  <Pepforge_TemplateRole>  (1) 
explicit_attachment_fragment

>  <Pepforge_CurationStatus>  (1) 
explicit_linear_linker_graph

>  <Pepforge_Source>  (1) 
database_or_explicit_linker_convention

>  <Pepforge_Notice>  (1) 
Attachment fragment for connected peptide construction; not a free-reagent or experimental-structure claim.

$$$$
