PEG2
     RDKit          3D

 26 25  0  0  0  0  0  0  0  0999 V2000
    3.7961    0.5334   -1.5679 N   0  0  0  0  0  0  0  0  0  0  0  0
    3.2870   -0.0891   -0.3499 C   0  0  0  0  0  0  0  0  0  0  0  0
    1.9280   -0.7307   -0.6123 C   0  0  0  0  0  0  0  0  0  0  0  0
    1.4731   -1.3502    0.5723 O   0  0  0  0  0  0  0  0  0  0  0  0
    0.1714   -1.8801    0.3934 C   0  0  0  0  0  0  0  0  0  0  0  0
   -0.8316   -1.0866    1.2244 C   0  0  0  0  0  0  0  0  0  0  0  0
   -0.8861    0.2434    0.7517 O   0  0  0  0  0  0  0  0  0  0  0  0
   -1.9176    0.9628    1.4029 C   0  0  0  0  0  0  0  0  0  0  0  0
   -3.1931    0.9700    0.5539 C   0  0  0  0  0  0  0  0  0  0  0  0
   -2.9490    1.5610   -0.8031 C   0  0  0  0  0  0  0  0  0  0  0  0
   -2.6410    2.7365   -0.9204 O   0  0  0  0  0  0  0  0  0  0  0  0
    4.7591    0.8871   -1.3650 H   0  0  0  0  0  0  0  0  0  0  0  0
    3.2095    1.3744   -1.7752 H   0  0  0  0  0  0  0  0  0  0  0  0
    3.1935    0.6733    0.4558 H   0  0  0  0  0  0  0  0  0  0  0  0
    4.0004   -0.8731   -0.0131 H   0  0  0  0  0  0  0  0  0  0  0  0
    1.2179    0.0628   -0.9408 H   0  0  0  0  0  0  0  0  0  0  0  0
    2.0421   -1.4876   -1.4217 H   0  0  0  0  0  0  0  0  0  0  0  0
   -0.1746   -1.9176   -0.6683 H   0  0  0  0  0  0  0  0  0  0  0  0
    0.1748   -2.9286    0.7600 H   0  0  0  0  0  0  0  0  0  0  0  0
   -0.5053   -1.1050    2.2890 H   0  0  0  0  0  0  0  0  0  0  0  0
   -1.8240   -1.5849    1.1368 H   0  0  0  0  0  0  0  0  0  0  0  0
   -2.1503    0.5808    2.4255 H   0  0  0  0  0  0  0  0  0  0  0  0
   -1.5737    2.0103    1.5409 H   0  0  0  0  0  0  0  0  0  0  0  0
   -3.9784    1.5611    1.0723 H   0  0  0  0  0  0  0  0  0  0  0  0
   -3.5700   -0.0681    0.4374 H   0  0  0  0  0  0  0  0  0  0  0  0
   -3.0582    0.9448   -1.6896 H   0  0  0  0  0  0  0  0  0  0  0  0
  1  2  1  0
  2  3  1  0
  3  4  1  0
  4  5  1  0
  5  6  1  0
  6  7  1  0
  7  8  1  0
  8  9  1  0
  9 10  1  0
 10 11  2  0
  1 12  1  0
  1 13  1  0
  2 14  1  0
  2 15  1  0
  3 16  1  0
  3 17  1  0
  5 18  1  0
  5 19  1  0
  6 20  1  0
  6 21  1  0
  8 22  1  0
  8 23  1  0
  9 24  1  0
  9 25  1  0
 10 26  1  0
M  END
>  <Pepforge_TemplateRole>  (1) 
explicit_attachment_fragment

>  <Pepforge_CurationStatus>  (1) 
explicit_linear_linker_graph

>  <Pepforge_Source>  (1) 
database_or_explicit_linker_convention

>  <Pepforge_Notice>  (1) 
Attachment fragment for connected peptide construction; not a free-reagent or experimental-structure claim.

$$$$
