PEG24
     RDKit          2D

180179  0  0  0  0  0  0  0  0999 V2000
   48.7164    1.0123    0.0000 N   0  0  0  0  0  0  0  0  0  0  0  0
   47.4156    0.2653    0.0000 C   0  0  0  0  0  0  0  0  0  0  0  0
   46.1149   -0.4817    0.0000 C   0  0  0  0  0  0  0  0  0  0  0  0
   44.8141   -1.2287    0.0000 O   0  0  0  0  0  0  0  0  0  0  0  0
   43.5168   -0.4757    0.0000 C   0  0  0  0  0  0  0  0  0  0  0  0
   42.2195    0.2773    0.0000 C   0  0  0  0  0  0  0  0  0  0  0  0
   40.9222    1.0303    0.0000 O   0  0  0  0  0  0  0  0  0  0  0  0
   39.6214    0.2833    0.0000 C   0  0  0  0  0  0  0  0  0  0  0  0
   38.3207   -0.4637    0.0000 C   0  0  0  0  0  0  0  0  0  0  0  0
   37.0199   -1.2107    0.0000 O   0  0  0  0  0  0  0  0  0  0  0  0
   35.7226   -0.4577    0.0000 C   0  0  0  0  0  0  0  0  0  0  0  0
   34.4253    0.2953    0.0000 C   0  0  0  0  0  0  0  0  0  0  0  0
   33.1280    1.0483    0.0000 O   0  0  0  0  0  0  0  0  0  0  0  0
   31.8272    0.3014    0.0000 C   0  0  0  0  0  0  0  0  0  0  0  0
   30.5264   -0.4456    0.0000 C   0  0  0  0  0  0  0  0  0  0  0  0
   29.2257   -1.1926    0.0000 O   0  0  0  0  0  0  0  0  0  0  0  0
   27.9284   -0.4396    0.0000 C   0  0  0  0  0  0  0  0  0  0  0  0
   26.6311    0.3134    0.0000 C   0  0  0  0  0  0  0  0  0  0  0  0
   25.3338    1.0664    0.0000 O   0  0  0  0  0  0  0  0  0  0  0  0
   24.0330    0.3194    0.0000 C   0  0  0  0  0  0  0  0  0  0  0  0
   22.7322   -0.4276    0.0000 C   0  0  0  0  0  0  0  0  0  0  0  0
   21.4315   -1.1746    0.0000 O   0  0  0  0  0  0  0  0  0  0  0  0
   20.1342   -0.4216    0.0000 C   0  0  0  0  0  0  0  0  0  0  0  0
   18.8369    0.3314    0.0000 C   0  0  0  0  0  0  0  0  0  0  0  0
   17.5396    1.0844    0.0000 O   0  0  0  0  0  0  0  0  0  0  0  0
   16.2388    0.3374    0.0000 C   0  0  0  0  0  0  0  0  0  0  0  0
   14.9380   -0.4096    0.0000 C   0  0  0  0  0  0  0  0  0  0  0  0
   13.6373   -1.1566    0.0000 O   0  0  0  0  0  0  0  0  0  0  0  0
   12.3400   -0.4036    0.0000 C   0  0  0  0  0  0  0  0  0  0  0  0
   11.0427    0.3494    0.0000 C   0  0  0  0  0  0  0  0  0  0  0  0
    9.7454    1.1025    0.0000 O   0  0  0  0  0  0  0  0  0  0  0  0
    8.4446    0.3555    0.0000 C   0  0  0  0  0  0  0  0  0  0  0  0
    7.1438   -0.3915    0.0000 C   0  0  0  0  0  0  0  0  0  0  0  0
    5.8431   -1.1385    0.0000 O   0  0  0  0  0  0  0  0  0  0  0  0
    4.5458   -0.3855    0.0000 C   0  0  0  0  0  0  0  0  0  0  0  0
    3.2485    0.3675    0.0000 C   0  0  0  0  0  0  0  0  0  0  0  0
    1.9512    1.1205    0.0000 O   0  0  0  0  0  0  0  0  0  0  0  0
    0.6504    0.3735    0.0000 C   0  0  0  0  0  0  0  0  0  0  0  0
   -0.6504   -0.3735    0.0000 C   0  0  0  0  0  0  0  0  0  0  0  0
   -1.9512   -1.1205    0.0000 O   0  0  0  0  0  0  0  0  0  0  0  0
   -3.2485   -0.3675    0.0000 C   0  0  0  0  0  0  0  0  0  0  0  0
   -4.5458    0.3855    0.0000 C   0  0  0  0  0  0  0  0  0  0  0  0
   -5.8431    1.1385    0.0000 O   0  0  0  0  0  0  0  0  0  0  0  0
   -7.1438    0.3915    0.0000 C   0  0  0  0  0  0  0  0  0  0  0  0
   -8.4446   -0.3555    0.0000 C   0  0  0  0  0  0  0  0  0  0  0  0
   -9.7454   -1.1025    0.0000 O   0  0  0  0  0  0  0  0  0  0  0  0
  -11.0427   -0.3494    0.0000 C   0  0  0  0  0  0  0  0  0  0  0  0
  -12.3400    0.4036    0.0000 C   0  0  0  0  0  0  0  0  0  0  0  0
  -13.6373    1.1566    0.0000 O   0  0  0  0  0  0  0  0  0  0  0  0
  -14.9380    0.4096    0.0000 C   0  0  0  0  0  0  0  0  0  0  0  0
  -16.2388   -0.3374    0.0000 C   0  0  0  0  0  0  0  0  0  0  0  0
  -17.5396   -1.0844    0.0000 O   0  0  0  0  0  0  0  0  0  0  0  0
  -18.8369   -0.3314    0.0000 C   0  0  0  0  0  0  0  0  0  0  0  0
  -20.1342    0.4216    0.0000 C   0  0  0  0  0  0  0  0  0  0  0  0
  -21.4315    1.1746    0.0000 O   0  0  0  0  0  0  0  0  0  0  0  0
  -22.7322    0.4276    0.0000 C   0  0  0  0  0  0  0  0  0  0  0  0
  -24.0330   -0.3194    0.0000 C   0  0  0  0  0  0  0  0  0  0  0  0
  -25.3338   -1.0664    0.0000 O   0  0  0  0  0  0  0  0  0  0  0  0
  -26.6311   -0.3134    0.0000 C   0  0  0  0  0  0  0  0  0  0  0  0
  -27.9284    0.4396    0.0000 C   0  0  0  0  0  0  0  0  0  0  0  0
  -29.2257    1.1926    0.0000 O   0  0  0  0  0  0  0  0  0  0  0  0
  -30.5264    0.4456    0.0000 C   0  0  0  0  0  0  0  0  0  0  0  0
  -31.8272   -0.3014    0.0000 C   0  0  0  0  0  0  0  0  0  0  0  0
  -33.1280   -1.0483    0.0000 O   0  0  0  0  0  0  0  0  0  0  0  0
  -34.4253   -0.2953    0.0000 C   0  0  0  0  0  0  0  0  0  0  0  0
  -35.7226    0.4577    0.0000 C   0  0  0  0  0  0  0  0  0  0  0  0
  -37.0199    1.2107    0.0000 O   0  0  0  0  0  0  0  0  0  0  0  0
  -38.3207    0.4637    0.0000 C   0  0  0  0  0  0  0  0  0  0  0  0
  -39.6214   -0.2833    0.0000 C   0  0  0  0  0  0  0  0  0  0  0  0
  -40.9222   -1.0303    0.0000 O   0  0  0  0  0  0  0  0  0  0  0  0
  -42.2195   -0.2773    0.0000 C   0  0  0  0  0  0  0  0  0  0  0  0
  -43.5168    0.4757    0.0000 C   0  0  0  0  0  0  0  0  0  0  0  0
  -44.8141    1.2287    0.0000 O   0  0  0  0  0  0  0  0  0  0  0  0
  -46.1149    0.4817    0.0000 C   0  0  0  0  0  0  0  0  0  0  0  0
  -47.4156   -0.2653    0.0000 C   0  0  0  0  0  0  0  0  0  0  0  0
  -48.7164   -1.0123    0.0000 C   0  0  0  0  0  0  0  0  0  0  0  0
  -50.0137   -0.2593    0.0000 O   0  0  0  0  0  0  0  0  0  0  0  0
   50.0137    0.2593    0.0000 H   0  0  0  0  0  0  0  0  0  0  0  0
   48.7199    2.5123    0.0000 H   0  0  0  0  0  0  0  0  0  0  0  0
   46.6686    1.5660    0.0000 H   0  0  0  0  0  0  0  0  0  0  0  0
   48.1626   -1.0355    0.0000 H   0  0  0  0  0  0  0  0  0  0  0  0
   45.3679    0.8191    0.0000 H   0  0  0  0  0  0  0  0  0  0  0  0
   46.8619   -1.7825    0.0000 H   0  0  0  0  0  0  0  0  0  0  0  0
   42.7638   -1.7730    0.0000 H   0  0  0  0  0  0  0  0  0  0  0  0
   44.2698    0.8216    0.0000 H   0  0  0  0  0  0  0  0  0  0  0  0
   41.4665   -1.0200    0.0000 H   0  0  0  0  0  0  0  0  0  0  0  0
   42.9725    1.5746    0.0000 H   0  0  0  0  0  0  0  0  0  0  0  0
   38.8744    1.5841    0.0000 H   0  0  0  0  0  0  0  0  0  0  0  0
   40.3684   -1.0175    0.0000 H   0  0  0  0  0  0  0  0  0  0  0  0
   37.5737    0.8371    0.0000 H   0  0  0  0  0  0  0  0  0  0  0  0
   39.0676   -1.7644    0.0000 H   0  0  0  0  0  0  0  0  0  0  0  0
   34.9696   -1.7550    0.0000 H   0  0  0  0  0  0  0  0  0  0  0  0
   36.4756    0.8396    0.0000 H   0  0  0  0  0  0  0  0  0  0  0  0
   33.6723   -1.0020    0.0000 H   0  0  0  0  0  0  0  0  0  0  0  0
   35.1783    1.5926    0.0000 H   0  0  0  0  0  0  0  0  0  0  0  0
   31.0802    1.6021    0.0000 H   0  0  0  0  0  0  0  0  0  0  0  0
   32.5742   -0.9994    0.0000 H   0  0  0  0  0  0  0  0  0  0  0  0
   29.7795    0.8551    0.0000 H   0  0  0  0  0  0  0  0  0  0  0  0
   31.2734   -1.7464    0.0000 H   0  0  0  0  0  0  0  0  0  0  0  0
   27.1754   -1.7369    0.0000 H   0  0  0  0  0  0  0  0  0  0  0  0
   28.6814    0.8577    0.0000 H   0  0  0  0  0  0  0  0  0  0  0  0
   25.8781   -0.9839    0.0000 H   0  0  0  0  0  0  0  0  0  0  0  0
   27.3841    1.6107    0.0000 H   0  0  0  0  0  0  0  0  0  0  0  0
   23.2860    1.6202    0.0000 H   0  0  0  0  0  0  0  0  0  0  0  0
   24.7800   -0.9814    0.0000 H   0  0  0  0  0  0  0  0  0  0  0  0
   21.9852    0.8732    0.0000 H   0  0  0  0  0  0  0  0  0  0  0  0
   23.4792   -1.7284    0.0000 H   0  0  0  0  0  0  0  0  0  0  0  0
   19.3812   -1.7189    0.0000 H   0  0  0  0  0  0  0  0  0  0  0  0
   20.8872    0.8757    0.0000 H   0  0  0  0  0  0  0  0  0  0  0  0
   18.0839   -0.9659    0.0000 H   0  0  0  0  0  0  0  0  0  0  0  0
   19.5899    1.6287    0.0000 H   0  0  0  0  0  0  0  0  0  0  0  0
   15.4918    1.6382    0.0000 H   0  0  0  0  0  0  0  0  0  0  0  0
   16.9858   -0.9633    0.0000 H   0  0  0  0  0  0  0  0  0  0  0  0
   14.1910    0.8912    0.0000 H   0  0  0  0  0  0  0  0  0  0  0  0
   15.6850   -1.7103    0.0000 H   0  0  0  0  0  0  0  0  0  0  0  0
   11.5870   -1.7009    0.0000 H   0  0  0  0  0  0  0  0  0  0  0  0
   13.0930    0.8937    0.0000 H   0  0  0  0  0  0  0  0  0  0  0  0
   10.2897   -0.9479    0.0000 H   0  0  0  0  0  0  0  0  0  0  0  0
   11.7957    1.6467    0.0000 H   0  0  0  0  0  0  0  0  0  0  0  0
    7.6976    1.6562    0.0000 H   0  0  0  0  0  0  0  0  0  0  0  0
    9.1916   -0.9453    0.0000 H   0  0  0  0  0  0  0  0  0  0  0  0
    6.3968    0.9092    0.0000 H   0  0  0  0  0  0  0  0  0  0  0  0
    7.8908   -1.6923    0.0000 H   0  0  0  0  0  0  0  0  0  0  0  0
    3.7927   -1.6828    0.0000 H   0  0  0  0  0  0  0  0  0  0  0  0
    5.2988    0.9118    0.0000 H   0  0  0  0  0  0  0  0  0  0  0  0
    2.4955   -0.9298    0.0000 H   0  0  0  0  0  0  0  0  0  0  0  0
    4.0015    1.6648    0.0000 H   0  0  0  0  0  0  0  0  0  0  0  0
   -0.0966    1.6743    0.0000 H   0  0  0  0  0  0  0  0  0  0  0  0
    1.3974   -0.9273    0.0000 H   0  0  0  0  0  0  0  0  0  0  0  0
   -1.3974    0.9273    0.0000 H   0  0  0  0  0  0  0  0  0  0  0  0
    0.0966   -1.6743    0.0000 H   0  0  0  0  0  0  0  0  0  0  0  0
   -4.0015   -1.6648    0.0000 H   0  0  0  0  0  0  0  0  0  0  0  0
   -2.4955    0.9298    0.0000 H   0  0  0  0  0  0  0  0  0  0  0  0
   -5.2988   -0.9118    0.0000 H   0  0  0  0  0  0  0  0  0  0  0  0
   -3.7927    1.6828    0.0000 H   0  0  0  0  0  0  0  0  0  0  0  0
   -7.8908    1.6923    0.0000 H   0  0  0  0  0  0  0  0  0  0  0  0
   -6.3968   -0.9092    0.0000 H   0  0  0  0  0  0  0  0  0  0  0  0
   -9.1916    0.9453    0.0000 H   0  0  0  0  0  0  0  0  0  0  0  0
   -7.6976   -1.6562    0.0000 H   0  0  0  0  0  0  0  0  0  0  0  0
  -11.7957   -1.6467    0.0000 H   0  0  0  0  0  0  0  0  0  0  0  0
  -10.2897    0.9479    0.0000 H   0  0  0  0  0  0  0  0  0  0  0  0
  -13.0930   -0.8937    0.0000 H   0  0  0  0  0  0  0  0  0  0  0  0
  -11.5870    1.7009    0.0000 H   0  0  0  0  0  0  0  0  0  0  0  0
  -15.6850    1.7103    0.0000 H   0  0  0  0  0  0  0  0  0  0  0  0
  -14.1910   -0.8912    0.0000 H   0  0  0  0  0  0  0  0  0  0  0  0
  -16.9858    0.9633    0.0000 H   0  0  0  0  0  0  0  0  0  0  0  0
  -15.4918   -1.6382    0.0000 H   0  0  0  0  0  0  0  0  0  0  0  0
  -19.5899   -1.6287    0.0000 H   0  0  0  0  0  0  0  0  0  0  0  0
  -18.0839    0.9659    0.0000 H   0  0  0  0  0  0  0  0  0  0  0  0
  -20.8872   -0.8757    0.0000 H   0  0  0  0  0  0  0  0  0  0  0  0
  -19.3812    1.7189    0.0000 H   0  0  0  0  0  0  0  0  0  0  0  0
  -23.4792    1.7284    0.0000 H   0  0  0  0  0  0  0  0  0  0  0  0
  -21.9852   -0.8732    0.0000 H   0  0  0  0  0  0  0  0  0  0  0  0
  -24.7800    0.9814    0.0000 H   0  0  0  0  0  0  0  0  0  0  0  0
  -23.2860   -1.6202    0.0000 H   0  0  0  0  0  0  0  0  0  0  0  0
  -27.3841   -1.6107    0.0000 H   0  0  0  0  0  0  0  0  0  0  0  0
  -25.8781    0.9839    0.0000 H   0  0  0  0  0  0  0  0  0  0  0  0
  -28.6814   -0.8577    0.0000 H   0  0  0  0  0  0  0  0  0  0  0  0
  -27.1754    1.7369    0.0000 H   0  0  0  0  0  0  0  0  0  0  0  0
  -31.2734    1.7464    0.0000 H   0  0  0  0  0  0  0  0  0  0  0  0
  -29.7795   -0.8551    0.0000 H   0  0  0  0  0  0  0  0  0  0  0  0
  -32.5742    0.9994    0.0000 H   0  0  0  0  0  0  0  0  0  0  0  0
  -31.0802   -1.6021    0.0000 H   0  0  0  0  0  0  0  0  0  0  0  0
  -35.1783   -1.5926    0.0000 H   0  0  0  0  0  0  0  0  0  0  0  0
  -33.6723    1.0020    0.0000 H   0  0  0  0  0  0  0  0  0  0  0  0
  -36.4756   -0.8396    0.0000 H   0  0  0  0  0  0  0  0  0  0  0  0
  -34.9696    1.7550    0.0000 H   0  0  0  0  0  0  0  0  0  0  0  0
  -39.0676    1.7644    0.0000 H   0  0  0  0  0  0  0  0  0  0  0  0
  -37.5737   -0.8371    0.0000 H   0  0  0  0  0  0  0  0  0  0  0  0
  -40.3684    1.0175    0.0000 H   0  0  0  0  0  0  0  0  0  0  0  0
  -38.8744   -1.5841    0.0000 H   0  0  0  0  0  0  0  0  0  0  0  0
  -42.9725   -1.5746    0.0000 H   0  0  0  0  0  0  0  0  0  0  0  0
  -41.4665    1.0200    0.0000 H   0  0  0  0  0  0  0  0  0  0  0  0
  -44.2698   -0.8216    0.0000 H   0  0  0  0  0  0  0  0  0  0  0  0
  -42.7638    1.7730    0.0000 H   0  0  0  0  0  0  0  0  0  0  0  0
  -46.8619    1.7825    0.0000 H   0  0  0  0  0  0  0  0  0  0  0  0
  -45.3679   -0.8191    0.0000 H   0  0  0  0  0  0  0  0  0  0  0  0
  -46.6686   -1.5660    0.0000 H   0  0  0  0  0  0  0  0  0  0  0  0
  -48.1626    1.0355    0.0000 H   0  0  0  0  0  0  0  0  0  0  0  0
  -48.7199   -2.5123    0.0000 H   0  0  0  0  0  0  0  0  0  0  0  0
  1  2  1  0
  2  3  1  0
  3  4  1  0
  4  5  1  0
  5  6  1  0
  6  7  1  0
  7  8  1  0
  8  9  1  0
  9 10  1  0
 10 11  1  0
 11 12  1  0
 12 13  1  0
 13 14  1  0
 14 15  1  0
 15 16  1  0
 16 17  1  0
 17 18  1  0
 18 19  1  0
 19 20  1  0
 20 21  1  0
 21 22  1  0
 22 23  1  0
 23 24  1  0
 24 25  1  0
 25 26  1  0
 26 27  1  0
 27 28  1  0
 28 29  1  0
 29 30  1  0
 30 31  1  0
 31 32  1  0
 32 33  1  0
 33 34  1  0
 34 35  1  0
 35 36  1  0
 36 37  1  0
 37 38  1  0
 38 39  1  0
 39 40  1  0
 40 41  1  0
 41 42  1  0
 42 43  1  0
 43 44  1  0
 44 45  1  0
 45 46  1  0
 46 47  1  0
 47 48  1  0
 48 49  1  0
 49 50  1  0
 50 51  1  0
 51 52  1  0
 52 53  1  0
 53 54  1  0
 54 55  1  0
 55 56  1  0
 56 57  1  0
 57 58  1  0
 58 59  1  0
 59 60  1  0
 60 61  1  0
 61 62  1  0
 62 63  1  0
 63 64  1  0
 64 65  1  0
 65 66  1  0
 66 67  1  0
 67 68  1  0
 68 69  1  0
 69 70  1  0
 70 71  1  0
 71 72  1  0
 72 73  1  0
 73 74  1  0
 74 75  1  0
 75 76  1  0
 76 77  2  0
  1 78  1  0
  1 79  1  0
  2 80  1  0
  2 81  1  0
  3 82  1  0
  3 83  1  0
  5 84  1  0
  5 85  1  0
  6 86  1  0
  6 87  1  0
  8 88  1  0
  8 89  1  0
  9 90  1  0
  9 91  1  0
 11 92  1  0
 11 93  1  0
 12 94  1  0
 12 95  1  0
 14 96  1  0
 14 97  1  0
 15 98  1  0
 15 99  1  0
 17100  1  0
 17101  1  0
 18102  1  0
 18103  1  0
 20104  1  0
 20105  1  0
 21106  1  0
 21107  1  0
 23108  1  0
 23109  1  0
 24110  1  0
 24111  1  0
 26112  1  0
 26113  1  0
 27114  1  0
 27115  1  0
 29116  1  0
 29117  1  0
 30118  1  0
 30119  1  0
 32120  1  0
 32121  1  0
 33122  1  0
 33123  1  0
 35124  1  0
 35125  1  0
 36126  1  0
 36127  1  0
 38128  1  0
 38129  1  0
 39130  1  0
 39131  1  0
 41132  1  0
 41133  1  0
 42134  1  0
 42135  1  0
 44136  1  0
 44137  1  0
 45138  1  0
 45139  1  0
 47140  1  0
 47141  1  0
 48142  1  0
 48143  1  0
 50144  1  0
 50145  1  0
 51146  1  0
 51147  1  0
 53148  1  0
 53149  1  0
 54150  1  0
 54151  1  0
 56152  1  0
 56153  1  0
 57154  1  0
 57155  1  0
 59156  1  0
 59157  1  0
 60158  1  0
 60159  1  0
 62160  1  0
 62161  1  0
 63162  1  0
 63163  1  0
 65164  1  0
 65165  1  0
 66166  1  0
 66167  1  0
 68168  1  0
 68169  1  0
 69170  1  0
 69171  1  0
 71172  1  0
 71173  1  0
 72174  1  0
 72175  1  0
 74176  1  0
 74177  1  0
 75178  1  0
 75179  1  0
 76180  1  0
M  END
>  <Pepforge_TemplateRole>  (1) 
explicit_attachment_fragment

>  <Pepforge_CurationStatus>  (1) 
explicit_linear_linker_graph

>  <Pepforge_Source>  (1) 
database_or_explicit_linker_convention

>  <Pepforge_Notice>  (1) 
Attachment fragment for connected peptide construction; not a free-reagent or experimental-structure claim.

$$$$
