PEG3
     RDKit          3D

 33 32  0  0  0  0  0  0  0  0999 V2000
    5.6794   -0.2055    0.1379 N   0  0  0  0  0  0  0  0  0  0  0  0
    5.1364    1.0655   -0.3395 C   0  0  0  0  0  0  0  0  0  0  0  0
    3.6135    1.0121   -0.4906 C   0  0  0  0  0  0  0  0  0  0  0  0
    3.0160    0.8371    0.7782 O   0  0  0  0  0  0  0  0  0  0  0  0
    1.6281    0.5961    0.6444 C   0  0  0  0  0  0  0  0  0  0  0  0
    1.3475   -0.9079    0.6836 C   0  0  0  0  0  0  0  0  0  0  0  0
   -0.0477   -1.1444    0.6816 O   0  0  0  0  0  0  0  0  0  0  0  0
   -0.5018   -1.4182   -0.6283 C   0  0  0  0  0  0  0  0  0  0  0  0
   -2.0236   -1.4822   -0.6320 C   0  0  0  0  0  0  0  0  0  0  0  0
   -2.5441   -0.2276   -0.2456 O   0  0  0  0  0  0  0  0  0  0  0  0
   -3.9546   -0.2837   -0.2389 C   0  0  0  0  0  0  0  0  0  0  0  0
   -4.5030    1.0788    0.1807 C   0  0  0  0  0  0  0  0  0  0  0  0
   -6.0014    1.0662    0.2346 C   0  0  0  0  0  0  0  0  0  0  0  0
   -6.6566    0.9132   -0.7842 O   0  0  0  0  0  0  0  0  0  0  0  0
    5.3934   -0.9661   -0.5208 H   0  0  0  0  0  0  0  0  0  0  0  0
    5.2677   -0.4226    1.0745 H   0  0  0  0  0  0  0  0  0  0  0  0
    5.5923    1.3059   -1.3243 H   0  0  0  0  0  0  0  0  0  0  0  0
    5.4135    1.8749    0.3703 H   0  0  0  0  0  0  0  0  0  0  0  0
    3.3514    0.1828   -1.1872 H   0  0  0  0  0  0  0  0  0  0  0  0
    3.2760    1.9751   -0.9356 H   0  0  0  0  0  0  0  0  0  0  0  0
    1.1829    1.0551   -0.2701 H   0  0  0  0  0  0  0  0  0  0  0  0
    1.1157    1.0682    1.5095 H   0  0  0  0  0  0  0  0  0  0  0  0
    1.8892   -1.4298   -0.1406 H   0  0  0  0  0  0  0  0  0  0  0  0
    1.7601   -1.3139    1.6316 H   0  0  0  0  0  0  0  0  0  0  0  0
   -0.1083   -2.4020   -0.9704 H   0  0  0  0  0  0  0  0  0  0  0  0
   -0.1816   -0.6269   -1.3446 H   0  0  0  0  0  0  0  0  0  0  0  0
   -2.3445   -2.2818    0.0749 H   0  0  0  0  0  0  0  0  0  0  0  0
   -2.3574   -1.7461   -1.6617 H   0  0  0  0  0  0  0  0  0  0  0  0
   -4.3403   -0.5268   -1.2561 H   0  0  0  0  0  0  0  0  0  0  0  0
   -4.3122   -1.0495    0.4882 H   0  0  0  0  0  0  0  0  0  0  0  0
   -4.1681    1.8576   -0.5381 H   0  0  0  0  0  0  0  0  0  0  0  0
   -4.1074    1.3385    1.1864 H   0  0  0  0  0  0  0  0  0  0  0  0
   -6.5106    1.2081    1.1823 H   0  0  0  0  0  0  0  0  0  0  0  0
  1  2  1  0
  2  3  1  0
  3  4  1  0
  4  5  1  0
  5  6  1  0
  6  7  1  0
  7  8  1  0
  8  9  1  0
  9 10  1  0
 10 11  1  0
 11 12  1  0
 12 13  1  0
 13 14  2  0
  1 15  1  0
  1 16  1  0
  2 17  1  0
  2 18  1  0
  3 19  1  0
  3 20  1  0
  5 21  1  0
  5 22  1  0
  6 23  1  0
  6 24  1  0
  8 25  1  0
  8 26  1  0
  9 27  1  0
  9 28  1  0
 11 29  1  0
 11 30  1  0
 12 31  1  0
 12 32  1  0
 13 33  1  0
M  END
>  <Pepforge_TemplateRole>  (1) 
explicit_attachment_fragment

>  <Pepforge_CurationStatus>  (1) 
explicit_linear_linker_graph

>  <Pepforge_Source>  (1) 
database_or_explicit_linker_convention

>  <Pepforge_Notice>  (1) 
Attachment fragment for connected peptide construction; not a free-reagent or experimental-structure claim.

$$$$
