PEG4
     RDKit          3D

 40 39  0  0  0  0  0  0  0  0999 V2000
    5.6524    1.4069   -0.3899 N   0  0  0  0  0  0  0  0  0  0  0  0
    5.3872   -0.0321   -0.2863 C   0  0  0  0  0  0  0  0  0  0  0  0
    4.3769   -0.5328   -1.3321 C   0  0  0  0  0  0  0  0  0  0  0  0
    3.0123   -0.4136   -0.9228 O   0  0  0  0  0  0  0  0  0  0  0  0
    2.5589    0.9427   -0.8328 C   0  0  0  0  0  0  0  0  0  0  0  0
    1.0319    0.9718   -0.7088 C   0  0  0  0  0  0  0  0  0  0  0  0
    0.5574    0.7417    0.6213 O   0  0  0  0  0  0  0  0  0  0  0  0
    0.8011   -0.5603    1.1555 C   0  0  0  0  0  0  0  0  0  0  0  0
    0.1761   -1.7161    0.3615 C   0  0  0  0  0  0  0  0  0  0  0  0
   -1.2114   -1.5360    0.0644 O   0  0  0  0  0  0  0  0  0  0  0  0
   -2.0641   -1.6338    1.2085 C   0  0  0  0  0  0  0  0  0  0  0  0
   -3.5165   -1.4801    0.7564 C   0  0  0  0  0  0  0  0  0  0  0  0
   -3.7711   -0.1034    0.4554 O   0  0  0  0  0  0  0  0  0  0  0  0
   -5.0465    0.0889   -0.1517 C   0  0  0  0  0  0  0  0  0  0  0  0
   -5.2110    1.5662   -0.4534 C   0  0  0  0  0  0  0  0  0  0  0  0
   -4.2847    1.9510   -1.5737 C   0  0  0  0  0  0  0  0  0  0  0  0
   -4.6754    2.4845   -2.6092 O   0  0  0  0  0  0  0  0  0  0  0  0
    6.3311    1.6736    0.3229 H   0  0  0  0  0  0  0  0  0  0  0  0
    6.0879    1.6125   -1.2884 H   0  0  0  0  0  0  0  0  0  0  0  0
    5.0226   -0.2529    0.7223 H   0  0  0  0  0  0  0  0  0  0  0  0
    6.3386   -0.5559   -0.4291 H   0  0  0  0  0  0  0  0  0  0  0  0
    4.5487   -1.6047   -1.4819 H   0  0  0  0  0  0  0  0  0  0  0  0
    4.5217   -0.0544   -2.3083 H   0  0  0  0  0  0  0  0  0  0  0  0
    3.0059    1.4186    0.0449 H   0  0  0  0  0  0  0  0  0  0  0  0
    2.8505    1.4776   -1.7432 H   0  0  0  0  0  0  0  0  0  0  0  0
    0.5554    0.2756   -1.4057 H   0  0  0  0  0  0  0  0  0  0  0  0
    0.6871    1.9779   -0.9709 H   0  0  0  0  0  0  0  0  0  0  0  0
    1.8766   -0.7172    1.2850 H   0  0  0  0  0  0  0  0  0  0  0  0
    0.3802   -0.5499    2.1661 H   0  0  0  0  0  0  0  0  0  0  0  0
    0.3175   -2.6631    0.8954 H   0  0  0  0  0  0  0  0  0  0  0  0
    0.6828   -1.8223   -0.6021 H   0  0  0  0  0  0  0  0  0  0  0  0
   -1.8161   -0.8466    1.9267 H   0  0  0  0  0  0  0  0  0  0  0  0
   -1.9258   -2.6173    1.6699 H   0  0  0  0  0  0  0  0  0  0  0  0
   -4.1921   -1.7884    1.5612 H   0  0  0  0  0  0  0  0  0  0  0  0
   -3.6995   -2.0911   -0.1349 H   0  0  0  0  0  0  0  0  0  0  0  0
   -5.8264   -0.2359    0.5457 H   0  0  0  0  0  0  0  0  0  0  0  0
   -5.1141   -0.5066   -1.0697 H   0  0  0  0  0  0  0  0  0  0  0  0
   -6.2399    1.7824   -0.7576 H   0  0  0  0  0  0  0  0  0  0  0  0
   -4.9557    2.1818    0.4149 H   0  0  0  0  0  0  0  0  0  0  0  0
   -3.2104    1.7608   -1.4035 H   0  0  0  0  0  0  0  0  0  0  0  0
  1  2  1  0
  2  3  1  0
  3  4  1  0
  4  5  1  0
  5  6  1  0
  6  7  1  0
  7  8  1  0
  8  9  1  0
  9 10  1  0
 10 11  1  0
 11 12  1  0
 12 13  1  0
 13 14  1  0
 14 15  1  0
 15 16  1  0
 16 17  2  0
  1 18  1  0
  1 19  1  0
  2 20  1  0
  2 21  1  0
  3 22  1  0
  3 23  1  0
  5 24  1  0
  5 25  1  0
  6 26  1  0
  6 27  1  0
  8 28  1  0
  8 29  1  0
  9 30  1  0
  9 31  1  0
 11 32  1  0
 11 33  1  0
 12 34  1  0
 12 35  1  0
 14 36  1  0
 14 37  1  0
 15 38  1  0
 15 39  1  0
 16 40  1  0
M  END
>  <Pepforge_TemplateRole>  (1) 
explicit_attachment_fragment

>  <Pepforge_CurationStatus>  (1) 
explicit_linear_linker_graph

>  <Pepforge_Source>  (1) 
database_or_explicit_linker_convention

>  <Pepforge_Notice>  (1) 
Attachment fragment for connected peptide construction; not a claim that this SDF is the free labeling reagent.

$$$$
