PEG4
     RDKit          3D

 35 34  0  0  0  0  0  0  0  0999 V2000
    6.9541   -0.2251   -0.2505 N   0  0  0  0  0  0  0  0  0  0  0  0
    5.6160    0.3616   -0.2002 C   0  0  0  0  0  0  0  0  0  0  0  0
    4.5156   -0.7043   -0.1116 C   0  0  0  0  0  0  0  0  0  0  0  0
    3.2111   -0.1255   -0.1934 O   0  0  0  0  0  0  0  0  0  0  0  0
    2.7669    0.4347    1.0480 C   0  0  0  0  0  0  0  0  0  0  0  0
    1.3107    0.8782    0.9062 C   0  0  0  0  0  0  0  0  0  0  0  0
    0.4578   -0.2720    0.9344 O   0  0  0  0  0  0  0  0  0  0  0  0
   -0.9048    0.0751    0.6967 C   0  0  0  0  0  0  0  0  0  0  0  0
   -1.7633   -1.1865    0.7690 C   0  0  0  0  0  0  0  0  0  0  0  0
   -3.1544   -0.9073    0.5978 O   0  0  0  0  0  0  0  0  0  0  0  0
   -3.5268   -0.7628   -0.7789 C   0  0  0  0  0  0  0  0  0  0  0  0
   -5.0392   -0.5647   -0.8630 C   0  0  0  0  0  0  0  0  0  0  0  0
   -5.4588    0.6098   -0.1196 N   0  0  0  0  0  0  0  0  0  0  0  0
   -6.6214    1.2700   -0.4119 C   0  0  0  0  0  0  0  0  0  0  0  0
   -7.3475    1.0491   -1.3696 O   0  0  0  0  0  0  0  0  0  0  0  0
    7.6420    0.5203   -0.3557 H   0  0  0  0  0  0  0  0  0  0  0  0
    7.0392   -0.8043   -1.0859 H   0  0  0  0  0  0  0  0  0  0  0  0
    5.5586    1.0325    0.6629 H   0  0  0  0  0  0  0  0  0  0  0  0
    5.4520    0.9845   -1.0870 H   0  0  0  0  0  0  0  0  0  0  0  0
    4.6053   -1.3863   -0.9648 H   0  0  0  0  0  0  0  0  0  0  0  0
    4.6123   -1.3102    0.7973 H   0  0  0  0  0  0  0  0  0  0  0  0
    2.8557   -0.3152    1.8418 H   0  0  0  0  0  0  0  0  0  0  0  0
    3.3862    1.3044    1.2875 H   0  0  0  0  0  0  0  0  0  0  0  0
    1.1694    1.4142   -0.0392 H   0  0  0  0  0  0  0  0  0  0  0  0
    1.0415    1.5298    1.7445 H   0  0  0  0  0  0  0  0  0  0  0  0
   -0.9961    0.5446   -0.2885 H   0  0  0  0  0  0  0  0  0  0  0  0
   -1.2467    0.7990    1.4458 H   0  0  0  0  0  0  0  0  0  0  0  0
   -1.6431   -1.6387    1.7602 H   0  0  0  0  0  0  0  0  0  0  0  0
   -1.4229   -1.9417    0.0500 H   0  0  0  0  0  0  0  0  0  0  0  0
   -3.0140    0.1029   -1.2105 H   0  0  0  0  0  0  0  0  0  0  0  0
   -3.2454   -1.6644   -1.3340 H   0  0  0  0  0  0  0  0  0  0  0  0
   -5.5598   -1.4174   -0.4134 H   0  0  0  0  0  0  0  0  0  0  0  0
   -5.3573   -0.4749   -1.9067 H   0  0  0  0  0  0  0  0  0  0  0  0
   -5.0497    0.7337    0.7994 H   0  0  0  0  0  0  0  0  0  0  0  0
   -6.8428    2.0568    0.3285 H   0  0  0  0  0  0  0  0  0  0  0  0
  1  2  1  0
  2  3  1  0
  3  4  1  0
  4  5  1  0
  5  6  1  0
  6  7  1  0
  7  8  1  0
  8  9  1  0
  9 10  1  0
 10 11  1  0
 11 12  1  0
 12 13  1  0
 13 14  1  0
 14 15  2  0
  1 16  1  0
  1 17  1  0
  2 18  1  0
  2 19  1  0
  3 20  1  0
  3 21  1  0
  5 22  1  0
  5 23  1  0
  6 24  1  0
  6 25  1  0
  8 26  1  0
  8 27  1  0
  9 28  1  0
  9 29  1  0
 11 30  1  0
 11 31  1  0
 12 32  1  0
 12 33  1  0
 13 34  1  0
 14 35  1  0
M  END
>  <Pepforge_Template_Token>  (1) 
PEG4

>  <Pepforge_Template_Category>  (1) 
linker

>  <Pepforge_Template_Mode>  (1) 
manifest_driven_template_checked_v120

>  <Pepforge_Version>  (1) 
1.2.0

>  <Pepforge_Curation_Status>  (1) 
rdkit_generated_template_checked_v120

$$$$
