PEG6
     RDKit          3D

 54 53  0  0  0  0  0  0  0  0999 V2000
   -8.4171   -1.9231    2.6067 N   0  0  0  0  0  0  0  0  0  0  0  0
   -8.1125   -0.9958    1.5216 C   0  0  0  0  0  0  0  0  0  0  0  0
   -6.7009   -1.2464    0.9850 C   0  0  0  0  0  0  0  0  0  0  0  0
   -5.7380   -1.0962    2.0140 O   0  0  0  0  0  0  0  0  0  0  0  0
   -5.2663    0.2380    2.0945 C   0  0  0  0  0  0  0  0  0  0  0  0
   -3.8590    0.3399    1.5014 C   0  0  0  0  0  0  0  0  0  0  0  0
   -3.8373   -0.1237    0.1636 O   0  0  0  0  0  0  0  0  0  0  0  0
   -4.0698    0.9284   -0.7550 C   0  0  0  0  0  0  0  0  0  0  0  0
   -2.7496    1.5379   -1.2228 C   0  0  0  0  0  0  0  0  0  0  0  0
   -1.9147    0.5155   -1.7269 O   0  0  0  0  0  0  0  0  0  0  0  0
   -0.6648    1.0454   -2.1280 C   0  0  0  0  0  0  0  0  0  0  0  0
    0.3545    0.9374   -0.9945 C   0  0  0  0  0  0  0  0  0  0  0  0
    1.6180    1.3498   -1.4736 O   0  0  0  0  0  0  0  0  0  0  0  0
    2.5994    1.2342   -0.4599 C   0  0  0  0  0  0  0  0  0  0  0  0
    3.2981   -0.1276   -0.5252 C   0  0  0  0  0  0  0  0  0  0  0  0
    3.6701   -0.4465   -1.8526 O   0  0  0  0  0  0  0  0  0  0  0  0
    4.9697    0.0261   -2.1614 C   0  0  0  0  0  0  0  0  0  0  0  0
    6.0041   -1.0924   -2.0004 C   0  0  0  0  0  0  0  0  0  0  0  0
    6.3417   -1.2660   -0.6357 O   0  0  0  0  0  0  0  0  0  0  0  0
    7.5835   -0.6515   -0.3540 C   0  0  0  0  0  0  0  0  0  0  0  0
    7.9084   -0.7811    1.1372 C   0  0  0  0  0  0  0  0  0  0  0  0
    7.0251    0.0921    1.9778 C   0  0  0  0  0  0  0  0  0  0  0  0
    5.8560   -0.2042    2.1635 O   0  0  0  0  0  0  0  0  0  0  0  0
   -8.5500   -2.8768    2.1944 H   0  0  0  0  0  0  0  0  0  0  0  0
   -9.3388   -1.6437    3.0168 H   0  0  0  0  0  0  0  0  0  0  0  0
   -8.8499   -1.1184    0.6973 H   0  0  0  0  0  0  0  0  0  0  0  0
   -8.1843    0.0478    1.8974 H   0  0  0  0  0  0  0  0  0  0  0  0
   -6.6441   -2.2892    0.6088 H   0  0  0  0  0  0  0  0  0  0  0  0
   -6.5052   -0.5939    0.1034 H   0  0  0  0  0  0  0  0  0  0  0  0
   -5.2050    0.5102    3.1683 H   0  0  0  0  0  0  0  0  0  0  0  0
   -5.9390    0.9925    1.6274 H   0  0  0  0  0  0  0  0  0  0  0  0
   -3.4702    1.3779    1.6131 H   0  0  0  0  0  0  0  0  0  0  0  0
   -3.1846   -0.3127    2.0957 H   0  0  0  0  0  0  0  0  0  0  0  0
   -4.7426    1.7241   -0.3572 H   0  0  0  0  0  0  0  0  0  0  0  0
   -4.5861    0.4984   -1.6393 H   0  0  0  0  0  0  0  0  0  0  0  0
   -2.2707    2.0581   -0.3637 H   0  0  0  0  0  0  0  0  0  0  0  0
   -2.9785    2.2840   -2.0178 H   0  0  0  0  0  0  0  0  0  0  0  0
   -0.7231    2.0987   -2.4944 H   0  0  0  0  0  0  0  0  0  0  0  0
   -0.2989    0.4368   -2.9823 H   0  0  0  0  0  0  0  0  0  0  0  0
    0.3877   -0.1203   -0.6486 H   0  0  0  0  0  0  0  0  0  0  0  0
    0.0255    1.5912   -0.1564 H   0  0  0  0  0  0  0  0  0  0  0  0
    3.3552    2.0289   -0.6277 H   0  0  0  0  0  0  0  0  0  0  0  0
    2.2005    1.4055    0.5674 H   0  0  0  0  0  0  0  0  0  0  0  0
    4.1536   -0.1487    0.1840 H   0  0  0  0  0  0  0  0  0  0  0  0
    2.5926   -0.9076   -0.1730 H   0  0  0  0  0  0  0  0  0  0  0  0
    4.9642    0.3336   -3.2283 H   0  0  0  0  0  0  0  0  0  0  0  0
    5.2722    0.9284   -1.5832 H   0  0  0  0  0  0  0  0  0  0  0  0
    6.8824   -0.8823   -2.6588 H   0  0  0  0  0  0  0  0  0  0  0  0
    5.5673   -2.0427   -2.3743 H   0  0  0  0  0  0  0  0  0  0  0  0
    7.5743    0.4285   -0.6348 H   0  0  0  0  0  0  0  0  0  0  0  0
    8.3943   -1.1656   -0.9197 H   0  0  0  0  0  0  0  0  0  0  0  0
    8.9640   -0.4747    1.3002 H   0  0  0  0  0  0  0  0  0  0  0  0
    7.8057   -1.8413    1.4599 H   0  0  0  0  0  0  0  0  0  0  0  0
    7.4329    0.9789    2.4503 H   0  0  0  0  0  0  0  0  0  0  0  0
  1  2  1  0
  2  3  1  0
  3  4  1  0
  4  5  1  0
  5  6  1  0
  6  7  1  0
  7  8  1  0
  8  9  1  0
  9 10  1  0
 10 11  1  0
 11 12  1  0
 12 13  1  0
 13 14  1  0
 14 15  1  0
 15 16  1  0
 16 17  1  0
 17 18  1  0
 18 19  1  0
 19 20  1  0
 20 21  1  0
 21 22  1  0
 22 23  2  0
  1 24  1  0
  1 25  1  0
  2 26  1  0
  2 27  1  0
  3 28  1  0
  3 29  1  0
  5 30  1  0
  5 31  1  0
  6 32  1  0
  6 33  1  0
  8 34  1  0
  8 35  1  0
  9 36  1  0
  9 37  1  0
 11 38  1  0
 11 39  1  0
 12 40  1  0
 12 41  1  0
 14 42  1  0
 14 43  1  0
 15 44  1  0
 15 45  1  0
 17 46  1  0
 17 47  1  0
 18 48  1  0
 18 49  1  0
 20 50  1  0
 20 51  1  0
 21 52  1  0
 21 53  1  0
 22 54  1  0
M  END
>  <Pepforge_TemplateRole>  (1) 
explicit_attachment_fragment

>  <Pepforge_CurationStatus>  (1) 
explicit_linear_linker_graph

>  <Pepforge_Source>  (1) 
database_or_explicit_linker_convention

>  <Pepforge_Notice>  (1) 
Attachment fragment for connected peptide construction; not a free-reagent or experimental-structure claim.

$$$$
