PEG8
     RDKit          3D

 49 48  0  0  0  0  0  0  0  0999 V2000
    7.6450    0.6864   -1.8933 N   0  0  0  0  0  0  0  0  0  0  0  0
    8.1904    1.1720   -0.6220 C   0  0  0  0  0  0  0  0  0  0  0  0
    7.6652    0.3884    0.5922 C   0  0  0  0  0  0  0  0  0  0  0  0
    6.4535    0.9071    1.1423 O   0  0  0  0  0  0  0  0  0  0  0  0
    5.2943    0.8020    0.3156 C   0  0  0  0  0  0  0  0  0  0  0  0
    4.8340   -0.6418    0.0976 C   0  0  0  0  0  0  0  0  0  0  0  0
    3.5816   -0.7163   -0.5876 O   0  0  0  0  0  0  0  0  0  0  0  0
    2.4602   -0.5740    0.2840 C   0  0  0  0  0  0  0  0  0  0  0  0
    1.1756   -0.6476   -0.5402 C   0  0  0  0  0  0  0  0  0  0  0  0
    0.0076   -0.4683    0.2616 O   0  0  0  0  0  0  0  0  0  0  0  0
   -0.4092   -1.6705    0.9194 C   0  0  0  0  0  0  0  0  0  0  0  0
   -1.7013   -1.4150    1.7004 C   0  0  0  0  0  0  0  0  0  0  0  0
   -2.8701   -1.4633    0.8751 O   0  0  0  0  0  0  0  0  0  0  0  0
   -3.0017   -0.3254    0.0147 C   0  0  0  0  0  0  0  0  0  0  0  0
   -4.4220   -0.2873   -0.5518 C   0  0  0  0  0  0  0  0  0  0  0  0
   -5.3227    0.1890    0.4545 O   0  0  0  0  0  0  0  0  0  0  0  0
   -6.6989    0.0731    0.0898 C   0  0  0  0  0  0  0  0  0  0  0  0
   -7.1434    1.1900   -0.8602 C   0  0  0  0  0  0  0  0  0  0  0  0
   -8.5140    1.0393   -1.3103 N   0  0  0  0  0  0  0  0  0  0  0  0
   -9.5775    1.3772   -0.5153 C   0  0  0  0  0  0  0  0  0  0  0  0
   -9.5060    1.8349    0.6148 O   0  0  0  0  0  0  0  0  0  0  0  0
    7.9554   -0.2699   -2.0606 H   0  0  0  0  0  0  0  0  0  0  0  0
    8.0256    1.2462   -2.6560 H   0  0  0  0  0  0  0  0  0  0  0  0
    7.9506    2.2351   -0.5155 H   0  0  0  0  0  0  0  0  0  0  0  0
    9.2801    1.0705   -0.6691 H   0  0  0  0  0  0  0  0  0  0  0  0
    8.4094    0.4776    1.3922 H   0  0  0  0  0  0  0  0  0  0  0  0
    7.5718   -0.6834    0.3862 H   0  0  0  0  0  0  0  0  0  0  0  0
    4.5053    1.3594    0.8306 H   0  0  0  0  0  0  0  0  0  0  0  0
    5.4323    1.3257   -0.6352 H   0  0  0  0  0  0  0  0  0  0  0  0
    4.7955   -1.1930    1.0450 H   0  0  0  0  0  0  0  0  0  0  0  0
    5.5621   -1.1654   -0.5298 H   0  0  0  0  0  0  0  0  0  0  0  0
    2.4975    0.3828    0.8152 H   0  0  0  0  0  0  0  0  0  0  0  0
    2.4785   -1.3725    1.0333 H   0  0  0  0  0  0  0  0  0  0  0  0
    1.1216   -1.5820   -1.1121 H   0  0  0  0  0  0  0  0  0  0  0  0
    1.1866    0.1592   -1.2822 H   0  0  0  0  0  0  0  0  0  0  0  0
    0.3734   -1.9792    1.6192 H   0  0  0  0  0  0  0  0  0  0  0  0
   -0.5700   -2.4570    0.1738 H   0  0  0  0  0  0  0  0  0  0  0  0
   -1.6673   -0.4619    2.2402 H   0  0  0  0  0  0  0  0  0  0  0  0
   -1.8248   -2.2144    2.4384 H   0  0  0  0  0  0  0  0  0  0  0  0
   -2.2945   -0.4313   -0.8132 H   0  0  0  0  0  0  0  0  0  0  0  0
   -2.7951    0.5949    0.5723 H   0  0  0  0  0  0  0  0  0  0  0  0
   -4.7248   -1.2903   -0.8728 H   0  0  0  0  0  0  0  0  0  0  0  0
   -4.4501    0.3982   -1.4040 H   0  0  0  0  0  0  0  0  0  0  0  0
   -7.2800    0.1320    1.0167 H   0  0  0  0  0  0  0  0  0  0  0  0
   -6.8960   -0.9166   -0.3400 H   0  0  0  0  0  0  0  0  0  0  0  0
   -7.0318    2.1615   -0.3647 H   0  0  0  0  0  0  0  0  0  0  0  0
   -6.5167    1.2156   -1.7566 H   0  0  0  0  0  0  0  0  0  0  0  0
   -8.6942    0.6252   -2.2155 H   0  0  0  0  0  0  0  0  0  0  0  0
  -10.5411    1.1835   -1.0153 H   0  0  0  0  0  0  0  0  0  0  0  0
  1  2  1  0
  2  3  1  0
  3  4  1  0
  4  5  1  0
  5  6  1  0
  6  7  1  0
  7  8  1  0
  8  9  1  0
  9 10  1  0
 10 11  1  0
 11 12  1  0
 12 13  1  0
 13 14  1  0
 14 15  1  0
 15 16  1  0
 16 17  1  0
 17 18  1  0
 18 19  1  0
 19 20  1  0
 20 21  2  0
  1 22  1  0
  1 23  1  0
  2 24  1  0
  2 25  1  0
  3 26  1  0
  3 27  1  0
  5 28  1  0
  5 29  1  0
  6 30  1  0
  6 31  1  0
  8 32  1  0
  8 33  1  0
  9 34  1  0
  9 35  1  0
 11 36  1  0
 11 37  1  0
 12 38  1  0
 12 39  1  0
 14 40  1  0
 14 41  1  0
 15 42  1  0
 15 43  1  0
 17 44  1  0
 17 45  1  0
 18 46  1  0
 18 47  1  0
 19 48  1  0
 20 49  1  0
M  END
>  <Pepforge_Template_Token>  (1) 
PEG8

>  <Pepforge_Template_Category>  (1) 
linker

>  <Pepforge_Template_Mode>  (1) 
manifest_driven_template_checked_v120

>  <Pepforge_Version>  (1) 
1.2.0

>  <Pepforge_Curation_Status>  (1) 
rdkit_generated_template_checked_v120

$$$$
