PEG8
     RDKit          3D

 68 67  0  0  0  0  0  0  0  0999 V2000
  -11.0633    0.6019    1.7779 N   0  0  0  0  0  0  0  0  0  0  0  0
  -11.5446   -0.4153    0.8350 C   0  0  0  0  0  0  0  0  0  0  0  0
  -10.3893   -1.2021    0.2010 C   0  0  0  0  0  0  0  0  0  0  0  0
   -9.5161   -0.2857   -0.4623 O   0  0  0  0  0  0  0  0  0  0  0  0
   -8.4170   -0.9176   -1.1268 C   0  0  0  0  0  0  0  0  0  0  0  0
   -7.2958   -1.3356   -0.1700 C   0  0  0  0  0  0  0  0  0  0  0  0
   -6.7090   -0.1703    0.4125 O   0  0  0  0  0  0  0  0  0  0  0  0
   -5.7358   -0.4529    1.4189 C   0  0  0  0  0  0  0  0  0  0  0  0
   -4.4778   -1.1609    0.8968 C   0  0  0  0  0  0  0  0  0  0  0  0
   -3.9213   -0.5897   -0.2877 O   0  0  0  0  0  0  0  0  0  0  0  0
   -3.5154    0.7765   -0.1932 C   0  0  0  0  0  0  0  0  0  0  0  0
   -2.4142    1.0423    0.8426 C   0  0  0  0  0  0  0  0  0  0  0  0
   -1.2976    0.1541    0.7674 O   0  0  0  0  0  0  0  0  0  0  0  0
   -0.5927    0.1344   -0.4736 C   0  0  0  0  0  0  0  0  0  0  0  0
   -0.0099    1.4876   -0.9033 C   0  0  0  0  0  0  0  0  0  0  0  0
    0.7053    2.1825    0.1194 O   0  0  0  0  0  0  0  0  0  0  0  0
    1.8580    1.5205    0.6370 C   0  0  0  0  0  0  0  0  0  0  0  0
    3.0066    1.4365   -0.3716 C   0  0  0  0  0  0  0  0  0  0  0  0
    4.2172    0.9617    0.2185 O   0  0  0  0  0  0  0  0  0  0  0  0
    4.2450   -0.4604    0.3867 C   0  0  0  0  0  0  0  0  0  0  0  0
    5.6124   -0.8906    0.9262 C   0  0  0  0  0  0  0  0  0  0  0  0
    6.6107   -0.9886   -0.0957 O   0  0  0  0  0  0  0  0  0  0  0  0
    7.0425    0.2854   -0.5892 C   0  0  0  0  0  0  0  0  0  0  0  0
    8.3310    0.1064   -1.3917 C   0  0  0  0  0  0  0  0  0  0  0  0
    9.4282   -0.1074   -0.4949 O   0  0  0  0  0  0  0  0  0  0  0  0
   10.6496   -0.3201   -1.2026 C   0  0  0  0  0  0  0  0  0  0  0  0
   11.7499   -0.5453   -0.1828 C   0  0  0  0  0  0  0  0  0  0  0  0
   13.0881   -0.7516   -0.8350 C   0  0  0  0  0  0  0  0  0  0  0  0
   13.2831   -0.7239   -2.0459 O   0  0  0  0  0  0  0  0  0  0  0  0
  -10.4000    1.1858    1.2568 H   0  0  0  0  0  0  0  0  0  0  0  0
  -10.4889    0.1527    2.4893 H   0  0  0  0  0  0  0  0  0  0  0  0
  -12.1129    0.0966    0.0509 H   0  0  0  0  0  0  0  0  0  0  0  0
  -12.2240   -1.1002    1.3528 H   0  0  0  0  0  0  0  0  0  0  0  0
  -10.7920   -1.9178   -0.5245 H   0  0  0  0  0  0  0  0  0  0  0  0
   -9.8457   -1.7495    0.9776 H   0  0  0  0  0  0  0  0  0  0  0  0
   -8.0234   -0.1803   -1.8352 H   0  0  0  0  0  0  0  0  0  0  0  0
   -8.7769   -1.7770   -1.7038 H   0  0  0  0  0  0  0  0  0  0  0  0
   -6.5358   -1.8775   -0.7414 H   0  0  0  0  0  0  0  0  0  0  0  0
   -7.6775   -1.9831    0.6247 H   0  0  0  0  0  0  0  0  0  0  0  0
   -5.4569    0.5128    1.8528 H   0  0  0  0  0  0  0  0  0  0  0  0
   -6.1968   -1.0374    2.2236 H   0  0  0  0  0  0  0  0  0  0  0  0
   -4.7278   -2.1959    0.6410 H   0  0  0  0  0  0  0  0  0  0  0  0
   -3.7156   -1.2184    1.6810 H   0  0  0  0  0  0  0  0  0  0  0  0
   -3.1501    1.0482   -1.1890 H   0  0  0  0  0  0  0  0  0  0  0  0
   -4.3835    1.4169   -0.0052 H   0  0  0  0  0  0  0  0  0  0  0  0
   -2.8256    0.9191    1.8498 H   0  0  0  0  0  0  0  0  0  0  0  0
   -2.0717    2.0807    0.7800 H   0  0  0  0  0  0  0  0  0  0  0  0
    0.2225   -0.5855   -0.3461 H   0  0  0  0  0  0  0  0  0  0  0  0
   -1.2340   -0.2730   -1.2623 H   0  0  0  0  0  0  0  0  0  0  0  0
    0.6230    1.3661   -1.7887 H   0  0  0  0  0  0  0  0  0  0  0  0
   -0.8263    2.1531   -1.2025 H   0  0  0  0  0  0  0  0  0  0  0  0
    1.5921    0.5369    1.0354 H   0  0  0  0  0  0  0  0  0  0  0  0
    2.1964    2.1013    1.5027 H   0  0  0  0  0  0  0  0  0  0  0  0
    3.2075    2.4406   -0.7621 H   0  0  0  0  0  0  0  0  0  0  0  0
    2.7440    0.8205   -1.2387 H   0  0  0  0  0  0  0  0  0  0  0  0
    4.0500   -0.9468   -0.5757 H   0  0  0  0  0  0  0  0  0  0  0  0
    3.4716   -0.7452    1.1069 H   0  0  0  0  0  0  0  0  0  0  0  0
    5.5189   -1.8964    1.3485 H   0  0  0  0  0  0  0  0  0  0  0  0
    5.9630   -0.2238    1.7222 H   0  0  0  0  0  0  0  0  0  0  0  0
    7.2155    0.9741    0.2453 H   0  0  0  0  0  0  0  0  0  0  0  0
    6.2689    0.6832   -1.2527 H   0  0  0  0  0  0  0  0  0  0  0  0
    8.2404   -0.7531   -2.0653 H   0  0  0  0  0  0  0  0  0  0  0  0
    8.5274    1.0138   -1.9734 H   0  0  0  0  0  0  0  0  0  0  0  0
   10.5490   -1.1939   -1.8572 H   0  0  0  0  0  0  0  0  0  0  0  0
   10.8716    0.5575   -1.8213 H   0  0  0  0  0  0  0  0  0  0  0  0
   11.5258   -1.4235    0.4326 H   0  0  0  0  0  0  0  0  0  0  0  0
   11.8251    0.3115    0.4956 H   0  0  0  0  0  0  0  0  0  0  0  0
   13.9248   -0.9328   -0.1382 H   0  0  0  0  0  0  0  0  0  0  0  0
  1  2  1  0
  2  3  1  0
  3  4  1  0
  4  5  1  0
  5  6  1  0
  6  7  1  0
  7  8  1  0
  8  9  1  0
  9 10  1  0
 10 11  1  0
 11 12  1  0
 12 13  1  0
 13 14  1  0
 14 15  1  0
 15 16  1  0
 16 17  1  0
 17 18  1  0
 18 19  1  0
 19 20  1  0
 20 21  1  0
 21 22  1  0
 22 23  1  0
 23 24  1  0
 24 25  1  0
 25 26  1  0
 26 27  1  0
 27 28  1  0
 28 29  2  0
  1 30  1  0
  1 31  1  0
  2 32  1  0
  2 33  1  0
  3 34  1  0
  3 35  1  0
  5 36  1  0
  5 37  1  0
  6 38  1  0
  6 39  1  0
  8 40  1  0
  8 41  1  0
  9 42  1  0
  9 43  1  0
 11 44  1  0
 11 45  1  0
 12 46  1  0
 12 47  1  0
 14 48  1  0
 14 49  1  0
 15 50  1  0
 15 51  1  0
 17 52  1  0
 17 53  1  0
 18 54  1  0
 18 55  1  0
 20 56  1  0
 20 57  1  0
 21 58  1  0
 21 59  1  0
 23 60  1  0
 23 61  1  0
 24 62  1  0
 24 63  1  0
 26 64  1  0
 26 65  1  0
 27 66  1  0
 27 67  1  0
 28 68  1  0
M  END
>  <Pepforge_TemplateRole>  (1) 
explicit_attachment_fragment

>  <Pepforge_CurationStatus>  (1) 
explicit_linear_linker_graph

>  <Pepforge_Source>  (1) 
database_or_explicit_linker_convention

>  <Pepforge_Notice>  (1) 
Attachment fragment for connected peptide construction; not a claim that this SDF is the free labeling reagent.

$$$$
