Ste_N_terminal_acyl_cap_template_v422_hotfix
     RDKit          3D

 55 54  0  0  0  0  0  0  0  0999 V2000
   -8.6064   -0.8470   -0.6101 C   0  0  0  0  0  0  0  0  0  0  0  0
   -8.0853    0.3605    0.1681 C   0  0  0  0  0  0  0  0  0  0  0  0
   -6.8655    0.0311    1.0472 C   0  0  0  0  0  0  0  0  0  0  0  0
   -5.6266   -0.4674    0.2807 C   0  0  0  0  0  0  0  0  0  0  0  0
   -5.0498    0.5903   -0.6758 C   0  0  0  0  0  0  0  0  0  0  0  0
   -3.7639    0.1166   -1.3730 C   0  0  0  0  0  0  0  0  0  0  0  0
   -2.5429    0.1281   -0.4402 C   0  0  0  0  0  0  0  0  0  0  0  0
   -1.2608   -0.2166   -1.2136 C   0  0  0  0  0  0  0  0  0  0  0  0
   -0.0343   -0.3631   -0.2981 C   0  0  0  0  0  0  0  0  0  0  0  0
    0.4686    0.9892    0.2365 C   0  0  0  0  0  0  0  0  0  0  0  0
    1.6961    0.8432    1.1507 C   0  0  0  0  0  0  0  0  0  0  0  0
    2.9815    0.5210    0.3730 C   0  0  0  0  0  0  0  0  0  0  0  0
    4.1992    0.5060    1.3101 C   0  0  0  0  0  0  0  0  0  0  0  0
    5.5227    0.2835    0.5597 C   0  0  0  0  0  0  0  0  0  0  0  0
    5.7259   -1.1827    0.1436 C   0  0  0  0  0  0  0  0  0  0  0  0
    6.9964   -1.3991   -0.6981 C   0  0  0  0  0  0  0  0  0  0  0  0
    8.3046   -1.2220    0.0947 C   0  0  0  0  0  0  0  0  0  0  0  0
    8.7844    0.2011    0.1082 C   0  0  0  0  0  0  0  0  0  0  0  0
    9.7956    0.4957    0.7244 O   0  0  0  0  0  0  0  0  0  0  0  0
   -9.5738   -0.5874   -1.0894 H   0  0  0  0  0  0  0  0  0  0  0  0
   -8.7690   -1.7090    0.0712 H   0  0  0  0  0  0  0  0  0  0  0  0
   -7.8933   -1.1340   -1.4106 H   0  0  0  0  0  0  0  0  0  0  0  0
   -7.8522    1.1880   -0.5339 H   0  0  0  0  0  0  0  0  0  0  0  0
   -8.8998    0.7217    0.8327 H   0  0  0  0  0  0  0  0  0  0  0  0
   -6.5898    0.9397    1.6257 H   0  0  0  0  0  0  0  0  0  0  0  0
   -7.1585   -0.7456    1.7872 H   0  0  0  0  0  0  0  0  0  0  0  0
   -4.8608   -0.7336    1.0385 H   0  0  0  0  0  0  0  0  0  0  0  0
   -5.8673   -1.3963   -0.2780 H   0  0  0  0  0  0  0  0  0  0  0  0
   -4.8565    1.5384   -0.1277 H   0  0  0  0  0  0  0  0  0  0  0  0
   -5.7963    0.8040   -1.4695 H   0  0  0  0  0  0  0  0  0  0  0  0
   -3.9149   -0.9035   -1.7899 H   0  0  0  0  0  0  0  0  0  0  0  0
   -3.5650    0.8017   -2.2264 H   0  0  0  0  0  0  0  0  0  0  0  0
   -2.6845   -0.6155    0.3720 H   0  0  0  0  0  0  0  0  0  0  0  0
   -2.4460    1.1372    0.0129 H   0  0  0  0  0  0  0  0  0  0  0  0
   -1.0634    0.5584   -1.9866 H   0  0  0  0  0  0  0  0  0  0  0  0
   -1.4119   -1.1848   -1.7400 H   0  0  0  0  0  0  0  0  0  0  0  0
   -0.2751   -1.0423    0.5488 H   0  0  0  0  0  0  0  0  0  0  0  0
    0.7698   -0.8420   -0.8948 H   0  0  0  0  0  0  0  0  0  0  0  0
   -0.3358    1.4663    0.8345 H   0  0  0  0  0  0  0  0  0  0  0  0
    0.7075    1.6694   -0.6102 H   0  0  0  0  0  0  0  0  0  0  0  0
    1.8368    1.8063    1.6891 H   0  0  0  0  0  0  0  0  0  0  0  0
    1.5073    0.0567    1.9141 H   0  0  0  0  0  0  0  0  0  0  0  0
    2.8780   -0.4708   -0.1103 H   0  0  0  0  0  0  0  0  0  0  0  0
    3.1354    1.2879   -0.4175 H   0  0  0  0  0  0  0  0  0  0  0  0
    4.2609    1.4884    1.8280 H   0  0  0  0  0  0  0  0  0  0  0  0
    4.0697   -0.2766    2.0899 H   0  0  0  0  0  0  0  0  0  0  0  0
    5.5687    0.9464   -0.3320 H   0  0  0  0  0  0  0  0  0  0  0  0
    6.3454    0.5762    1.2455 H   0  0  0  0  0  0  0  0  0  0  0  0
    4.8634   -1.5152   -0.4703 H   0  0  0  0  0  0  0  0  0  0  0  0
    5.7605   -1.8293    1.0476 H   0  0  0  0  0  0  0  0  0  0  0  0
    6.9681   -2.4461   -1.0718 H   0  0  0  0  0  0  0  0  0  0  0  0
    6.9821   -0.7436   -1.5968 H   0  0  0  0  0  0  0  0  0  0  0  0
    8.1789   -1.5842    1.1381 H   0  0  0  0  0  0  0  0  0  0  0  0
    9.0954   -1.8410   -0.3817 H   0  0  0  0  0  0  0  0  0  0  0  0
    8.2465    0.9781   -0.4260 H   0  0  0  0  0  0  0  0  0  0  0  0
  1  2  1  0
  2  3  1  0
  3  4  1  0
  4  5  1  0
  5  6  1  0
  6  7  1  0
  7  8  1  0
  8  9  1  0
  9 10  1  0
 10 11  1  0
 11 12  1  0
 12 13  1  0
 13 14  1  0
 14 15  1  0
 15 16  1  0
 16 17  1  0
 17 18  1  0
 18 19  2  0
  1 20  1  0
  1 21  1  0
  1 22  1  0
  2 23  1  0
  2 24  1  0
  3 25  1  0
  3 26  1  0
  4 27  1  0
  4 28  1  0
  5 29  1  0
  5 30  1  0
  6 31  1  0
  6 32  1  0
  7 33  1  0
  7 34  1  0
  8 35  1  0
  8 36  1  0
  9 37  1  0
  9 38  1  0
 10 39  1  0
 10 40  1  0
 11 41  1  0
 11 42  1  0
 12 43  1  0
 12 44  1  0
 13 45  1  0
 13 46  1  0
 14 47  1  0
 14 48  1  0
 15 49  1  0
 15 50  1  0
 16 51  1  0
 16 52  1  0
 17 53  1  0
 17 54  1  0
 18 55  1  0
M  END
>  <Pepforge_Template_Role>  (1) 
N-terminal acyl cap / side-chain acyl tail source

$$$$
