Ste
     RDKit          3D

 55 54  0  0  0  0  0  0  0  0999 V2000
   -8.4469   -0.9387   -0.4864 C   0  0  0  0  0  0  0  0  0  0  0  0
   -8.0328    0.3139    0.2696 C   0  0  0  0  0  0  0  0  0  0  0  0
   -6.7976    0.1173    1.1517 C   0  0  0  0  0  0  0  0  0  0  0  0
   -5.5229   -0.3322    0.4288 C   0  0  0  0  0  0  0  0  0  0  0  0
   -5.0380    0.6658   -0.6256 C   0  0  0  0  0  0  0  0  0  0  0  0
   -3.7604    0.2183   -1.3437 C   0  0  0  0  0  0  0  0  0  0  0  0
   -2.5285    0.1832   -0.4349 C   0  0  0  0  0  0  0  0  0  0  0  0
   -1.2644   -0.1456   -1.2342 C   0  0  0  0  0  0  0  0  0  0  0  0
   -0.0167   -0.3200   -0.3615 C   0  0  0  0  0  0  0  0  0  0  0  0
    0.4358    0.9761    0.3162 C   0  0  0  0  0  0  0  0  0  0  0  0
    1.6824    0.8020    1.1904 C   0  0  0  0  0  0  0  0  0  0  0  0
    2.9489    0.4796    0.3922 C   0  0  0  0  0  0  0  0  0  0  0  0
    4.1784    0.4346    1.3042 C   0  0  0  0  0  0  0  0  0  0  0  0
    5.4948    0.2291    0.5466 C   0  0  0  0  0  0  0  0  0  0  0  0
    5.6267   -1.1625   -0.0751 C   0  0  0  0  0  0  0  0  0  0  0  0
    6.9087   -1.3606   -0.8946 C   0  0  0  0  0  0  0  0  0  0  0  0
    8.1958   -1.3334   -0.0739 C   0  0  0  0  0  0  0  0  0  0  0  0
    8.7401    0.0630    0.0796 C   0  0  0  0  0  0  0  0  0  0  0  0
    9.1169    0.5243    1.1525 O   0  0  0  0  0  0  0  0  0  0  0  0
   -9.3906   -0.7645   -1.0133 H   0  0  0  0  0  0  0  0  0  0  0  0
   -8.5914   -1.7810    0.1974 H   0  0  0  0  0  0  0  0  0  0  0  0
   -7.6990   -1.2218   -1.2329 H   0  0  0  0  0  0  0  0  0  0  0  0
   -7.8705    1.1330   -0.4393 H   0  0  0  0  0  0  0  0  0  0  0  0
   -8.8665    0.6244    0.9112 H   0  0  0  0  0  0  0  0  0  0  0  0
   -6.5941    1.0579    1.6787 H   0  0  0  0  0  0  0  0  0  0  0  0
   -7.0328   -0.6236    1.9262 H   0  0  0  0  0  0  0  0  0  0  0  0
   -4.7463   -0.4675    1.1903 H   0  0  0  0  0  0  0  0  0  0  0  0
   -5.6780   -1.3146   -0.0314 H   0  0  0  0  0  0  0  0  0  0  0  0
   -4.8758    1.6464   -0.1623 H   0  0  0  0  0  0  0  0  0  0  0  0
   -5.8144    0.7989   -1.3874 H   0  0  0  0  0  0  0  0  0  0  0  0
   -3.9186   -0.7693   -1.7938 H   0  0  0  0  0  0  0  0  0  0  0  0
   -3.5729    0.9154   -2.1701 H   0  0  0  0  0  0  0  0  0  0  0  0
   -2.6612   -0.5697    0.3495 H   0  0  0  0  0  0  0  0  0  0  0  0
   -2.4198    1.1555    0.0576 H   0  0  0  0  0  0  0  0  0  0  0  0
   -1.0836    0.6362   -1.9819 H   0  0  0  0  0  0  0  0  0  0  0  0
   -1.4260   -1.0796   -1.7868 H   0  0  0  0  0  0  0  0  0  0  0  0
   -0.2027   -1.0903    0.3965 H   0  0  0  0  0  0  0  0  0  0  0  0
    0.7858   -0.6963   -1.0057 H   0  0  0  0  0  0  0  0  0  0  0  0
   -0.3674    1.3526    0.9593 H   0  0  0  0  0  0  0  0  0  0  0  0
    0.6228    1.7462   -0.4419 H   0  0  0  0  0  0  0  0  0  0  0  0
    1.8394    1.7348    1.7464 H   0  0  0  0  0  0  0  0  0  0  0  0
    1.5034    0.0171    1.9354 H   0  0  0  0  0  0  0  0  0  0  0  0
    2.8293   -0.4850   -0.1098 H   0  0  0  0  0  0  0  0  0  0  0  0
    3.0961    1.2387   -0.3852 H   0  0  0  0  0  0  0  0  0  0  0  0
    4.2482    1.3820    1.8534 H   0  0  0  0  0  0  0  0  0  0  0  0
    4.0565   -0.3565    2.0541 H   0  0  0  0  0  0  0  0  0  0  0  0
    5.5976    0.9975   -0.2289 H   0  0  0  0  0  0  0  0  0  0  0  0
    6.3092    0.3837    1.2622 H   0  0  0  0  0  0  0  0  0  0  0  0
    4.7804   -1.3472   -0.7460 H   0  0  0  0  0  0  0  0  0  0  0  0
    5.5743   -1.9240    0.7126 H   0  0  0  0  0  0  0  0  0  0  0  0
    6.8369   -2.3456   -1.3733 H   0  0  0  0  0  0  0  0  0  0  0  0
    6.9452   -0.6215   -1.7040 H   0  0  0  0  0  0  0  0  0  0  0  0
    8.0549   -1.7863    0.9126 H   0  0  0  0  0  0  0  0  0  0  0  0
    8.9694   -1.9044   -0.5999 H   0  0  0  0  0  0  0  0  0  0  0  0
    8.8421    0.6470   -0.8511 H   0  0  0  0  0  0  0  0  0  0  0  0
  1  2  1  0
  2  3  1  0
  3  4  1  0
  4  5  1  0
  5  6  1  0
  6  7  1  0
  7  8  1  0
  8  9  1  0
  9 10  1  0
 10 11  1  0
 11 12  1  0
 12 13  1  0
 13 14  1  0
 14 15  1  0
 15 16  1  0
 16 17  1  0
 17 18  1  0
 18 19  2  0
  1 20  1  0
  1 21  1  0
  1 22  1  0
  2 23  1  0
  2 24  1  0
  3 25  1  0
  3 26  1  0
  4 27  1  0
  4 28  1  0
  5 29  1  0
  5 30  1  0
  6 31  1  0
  6 32  1  0
  7 33  1  0
  7 34  1  0
  8 35  1  0
  8 36  1  0
  9 37  1  0
  9 38  1  0
 10 39  1  0
 10 40  1  0
 11 41  1  0
 11 42  1  0
 12 43  1  0
 12 44  1  0
 13 45  1  0
 13 46  1  0
 14 47  1  0
 14 48  1  0
 15 49  1  0
 15 50  1  0
 16 51  1  0
 16 52  1  0
 17 53  1  0
 17 54  1  0
 18 55  1  0
M  END
>  <Pepforge_TemplateRole>  (1) 
explicit_attachment_fragment

>  <Pepforge_CurationStatus>  (1) 
buildable_only_as_explicit_N_terminal_or_sidechain_acyl

>  <Pepforge_Source>  (1) 
explicit_acyl_attachment_rule

>  <Pepforge_Notice>  (1) 
Attachment fragment for connected peptide construction; not a claim that this SDF is the free labeling reagent.

$$$$
