TAMRA
     RDKit          3D

 53 57  0  0  0  0  0  0  0  0999 V2000
    2.2614    3.9221    3.7303 N   0  0  0  0  0  0  0  0  0  0  0  0
    1.6197    3.0969    2.8001 C   0  0  0  0  0  0  0  0  0  0  0  0
    1.3123    1.7643    3.1375 C   0  0  0  0  0  0  0  0  0  0  0  0
    0.7820    0.8745    2.1945 C   0  0  0  0  0  0  0  0  0  0  0  0
    0.6018    1.3237    0.8962 C   0  0  0  0  0  0  0  0  0  0  0  0
    0.9539    2.6135    0.5611 C   0  0  0  0  0  0  0  0  0  0  0  0
    1.4812    3.5117    1.4743 C   0  0  0  0  0  0  0  0  0  0  0  0
    0.6942    2.8199   -0.8547 C   0  0  0  0  0  0  0  0  0  0  0  0
    0.8924    3.8419   -1.4801 O   0  0  0  0  0  0  0  0  0  0  0  0
    0.1840    1.6525   -1.3433 O   0  0  0  0  0  0  0  0  0  0  0  0
    0.0802    0.6230   -0.3203 C   0  0  0  0  0  0  0  0  0  0  0  0
   -1.3761    0.2319   -0.1765 C   0  0  0  0  0  0  0  0  0  0  0  0
   -2.4152    1.1687   -0.1487 C   0  0  0  0  0  0  0  0  0  0  0  0
   -3.7446    0.7623    0.0427 C   0  0  0  0  0  0  0  0  0  0  0  0
   -4.1046   -0.5859    0.2090 C   0  0  0  0  0  0  0  0  0  0  0  0
   -5.4317   -0.9809    0.4228 N   0  0  0  0  0  0  0  0  0  0  0  0
   -6.5065   -0.0476    0.0863 C   0  0  0  0  0  0  0  0  0  0  0  0
   -5.7746   -2.3983    0.3110 C   0  0  0  0  0  0  0  0  0  0  0  0
   -3.0416   -1.5046    0.1918 C   0  0  0  0  0  0  0  0  0  0  0  0
   -1.7098   -1.1092   -0.0096 C   0  0  0  0  0  0  0  0  0  0  0  0
   -0.7791   -2.1219   -0.0208 O   0  0  0  0  0  0  0  0  0  0  0  0
    0.4692   -1.8449   -0.5187 C   0  0  0  0  0  0  0  0  0  0  0  0
    1.2698   -2.9400   -0.8201 C   0  0  0  0  0  0  0  0  0  0  0  0
    2.5562   -2.7511   -1.3385 C   0  0  0  0  0  0  0  0  0  0  0  0
    3.0926   -1.4722   -1.5628 C   0  0  0  0  0  0  0  0  0  0  0  0
    4.3716   -1.2920   -2.0992 N   0  0  0  0  0  0  0  0  0  0  0  0
    5.3414   -2.3806   -1.9880 C   0  0  0  0  0  0  0  0  0  0  0  0
    4.9364    0.0530   -2.1916 C   0  0  0  0  0  0  0  0  0  0  0  0
    2.2489   -0.3891   -1.2497 C   0  0  0  0  0  0  0  0  0  0  0  0
    0.9471   -0.5539   -0.7220 C   0  0  0  0  0  0  0  0  0  0  0  0
    2.0517    3.6992    4.6986 H   0  0  0  0  0  0  0  0  0  0  0  0
    2.1747    4.9155    3.5368 H   0  0  0  0  0  0  0  0  0  0  0  0
    1.4884    1.4089    4.1507 H   0  0  0  0  0  0  0  0  0  0  0  0
    0.5359   -0.1454    2.4777 H   0  0  0  0  0  0  0  0  0  0  0  0
    1.7743    4.5065    1.1550 H   0  0  0  0  0  0  0  0  0  0  0  0
   -2.2106    2.2303   -0.2702 H   0  0  0  0  0  0  0  0  0  0  0  0
   -4.4946    1.5475    0.0642 H   0  0  0  0  0  0  0  0  0  0  0  0
   -6.4691    0.2320   -0.9724 H   0  0  0  0  0  0  0  0  0  0  0  0
   -7.4910   -0.4901    0.2762 H   0  0  0  0  0  0  0  0  0  0  0  0
   -6.4590    0.8528    0.7080 H   0  0  0  0  0  0  0  0  0  0  0  0
   -5.5583   -2.7781   -0.6936 H   0  0  0  0  0  0  0  0  0  0  0  0
   -5.2383   -2.9962    1.0556 H   0  0  0  0  0  0  0  0  0  0  0  0
   -6.8401   -2.5649    0.5057 H   0  0  0  0  0  0  0  0  0  0  0  0
   -3.2206   -2.5663    0.3293 H   0  0  0  0  0  0  0  0  0  0  0  0
    0.8944   -3.9481   -0.6666 H   0  0  0  0  0  0  0  0  0  0  0  0
    3.1246   -3.6447   -1.5771 H   0  0  0  0  0  0  0  0  0  0  0  0
    5.0292   -3.2501   -2.5760 H   0  0  0  0  0  0  0  0  0  0  0  0
    6.3207   -2.0862   -2.3822 H   0  0  0  0  0  0  0  0  0  0  0  0
    5.4846   -2.6754   -0.9425 H   0  0  0  0  0  0  0  0  0  0  0  0
    5.9126    0.0391   -2.6893 H   0  0  0  0  0  0  0  0  0  0  0  0
    4.3017    0.7096   -2.7967 H   0  0  0  0  0  0  0  0  0  0  0  0
    5.0768    0.4895   -1.1967 H   0  0  0  0  0  0  0  0  0  0  0  0
    2.5997    0.6266   -1.4075 H   0  0  0  0  0  0  0  0  0  0  0  0
  1  2  1  0
  2  3  2  0
  3  4  1  0
  4  5  2  0
  5  6  1  0
  6  7  2  0
  6  8  1  0
  8  9  2  0
  8 10  1  0
 10 11  1  0
 11 12  1  0
 12 13  2  0
 13 14  1  0
 14 15  2  0
 15 16  1  0
 16 17  1  0
 16 18  1  0
 15 19  1  0
 19 20  2  0
 20 21  1  0
 21 22  1  0
 22 23  2  0
 23 24  1  0
 24 25  2  0
 25 26  1  0
 26 27  1  0
 26 28  1  0
 25 29  1  0
 29 30  2  0
  7  2  1  0
 30 11  1  0
 11  5  1  0
 20 12  1  0
 30 22  1  0
  1 31  1  0
  1 32  1  0
  3 33  1  0
  4 34  1  0
  7 35  1  0
 13 36  1  0
 14 37  1  0
 17 38  1  0
 17 39  1  0
 17 40  1  0
 18 41  1  0
 18 42  1  0
 18 43  1  0
 19 44  1  0
 23 45  1  0
 24 46  1  0
 27 47  1  0
 27 48  1  0
 27 49  1  0
 28 50  1  0
 28 51  1  0
 28 52  1  0
 29 53  1  0
M  END
>  <Pepforge_Template_Token>  (1) 
TAMRA

>  <Pepforge_Template_Category>  (1) 
label

>  <Pepforge_Template_Mode>  (1) 
manifest_driven_template_checked_v120

>  <Pepforge_Version>  (1) 
1.2.0

>  <Pepforge_Curation_Status>  (1) 
rdkit_generated_template_checked_v120

$$$$
